MODEL 1
REMARK VINA RESULT:      -8.0      0.000      0.000
REMARK  27 active torsions:
REMARK  status: ('A' for Active; 'I' for Inactive)
REMARK    1  A    between atoms: P1_1  and  O13_3 
REMARK    2  A    between atoms: P1_1  and  O14_5 
REMARK    3  A    between atoms: P1_1  and  O6_7 
REMARK    4  A    between atoms: P2_17  and  O16_19 
REMARK    5  A    between atoms: P2_17  and  O8_16 
REMARK    6  A    between atoms: P2_17  and  O12_21 
REMARK    7  A    between atoms: P3_22  and  O12_21 
REMARK    8  A    between atoms: P3_22  and  O11_24 
REMARK    9  A    between atoms: P3_22  and  O17_71 
REMARK   10  A    between atoms: O6_7  and  C28_8 
REMARK   11  A    between atoms: O7_13  and  C29_9 
REMARK   12  A    between atoms: O8_16  and  C36_15 
REMARK   13  A    between atoms: O9_69  and  C32_30 
REMARK   14  A    between atoms: O10_67  and  C33_29 
REMARK   15  A    between atoms: O11_24  and  C37_25 
REMARK   16  A    between atoms: N21_73  and  C30_12 
REMARK   17  A    between atoms: N22_31  and  C35_28 
REMARK   18  A    between atoms: N26_82  and  C44_77 
REMARK   19  A    between atoms: N27_38  and  O79_41 
REMARK       I    between atoms: N27_38  and  C48_37 
REMARK   20  A    between atoms: C31_10  and  C36_15 
REMARK   21  A    between atoms: C34_26  and  C37_25 
REMARK   22  A    between atoms: C43_35  and  C48_37 
REMARK   23  A    between atoms: O77_60  and  C93_58 
REMARK   24  A    between atoms: O79_41  and  C94_42 
REMARK   25  A    between atoms: O80_65  and  C97_57 
REMARK   26  A    between atoms: C82_44  and  C93_58 
REMARK   27  A    between atoms: C96_56  and  C98_62 
ROOT
HETATM    1  P1          0     -21.901  11.115  35.179  1.00  0.00     0.000 P 
HETATM    2  O15         0     -22.878  11.176  34.108  1.00  0.00     0.000 OA
ENDROOT
BRANCH   1   3
HETATM    3  O13         0     -21.795   9.572  35.726  1.00  0.00     0.000 OA
HETATM    4  H69         0     -20.868   9.458  35.942  1.00  0.00     0.000 HD
ENDBRANCH   1   3
BRANCH   1   5
HETATM    5  O14         0     -22.346  12.103  36.409  1.00  0.00     0.000 OA
HETATM    6  H70         0     -23.129  11.682  36.778  1.00  0.00     0.000 HD
ENDBRANCH   1   5
BRANCH   1   7
HETATM    7  O6          0     -20.430  11.578  34.608  1.00  0.00     0.000 OA
BRANCH   7   8
HETATM    8  C28         0     -20.457  12.207  33.324  1.00  0.00     0.000 C 
HETATM    9  C29         0     -19.319  11.748  32.473  1.00  0.00     0.000 C 
HETATM   10  C31         0     -18.812  12.995  31.784  1.00  0.00     0.000 C 
HETATM   11  O4          0     -19.501  14.138  32.313  1.00  0.00     0.000 OA
HETATM   12  C30         0     -20.276  13.719  33.441  1.00  0.00     0.000 C 
BRANCH   9  13
HETATM   13  O7          0     -18.294  11.160  33.261  1.00  0.00     0.000 OA
HETATM   14  H61         0     -17.768  10.649  32.640  1.00  0.00     0.000 HD
ENDBRANCH   9  13
BRANCH  10  15
HETATM   15  C36         0     -19.086  12.903  30.266  1.00  0.00     0.000 C 
BRANCH  15  16
HETATM   16  O8          0     -18.554  13.977  29.477  1.00  0.00     0.000 OA
BRANCH  16  17
HETATM   17  P2          0     -17.473  13.549  28.317  1.00  0.00     0.000 P 
HETATM   18  O18         0     -16.130  13.597  28.866  1.00  0.00     0.000 OA
BRANCH  17  19
HETATM   19  O16         0     -17.562  14.562  27.029  1.00  0.00     0.000 OA
HETATM   20  H72         0     -16.651  14.804  26.847  1.00  0.00     0.000 HD
ENDBRANCH  17  19
BRANCH  17  21
HETATM   21  O12         0     -17.819  12.002  27.889  1.00  0.00     0.000 OA
BRANCH  21  22
HETATM   22  P3          0     -18.432  11.928  26.367  1.00  0.00     0.000 P 
HETATM   23  O19         0     -19.543  12.845  26.189  1.00  0.00     0.000 OA
BRANCH  22  24
HETATM   24  O11         0     -17.174  12.313  25.389  1.00  0.00     0.000 OA
BRANCH  24  25
HETATM   25  C37         0     -17.609  12.815  24.127  1.00  0.00     0.000 C 
BRANCH  25  26
HETATM   26  C34         0     -17.559  11.706  23.077  1.00  0.00     0.000 C 
HETATM   27  O5          0     -18.024  12.144  21.771  1.00  0.00     0.000 OA
HETATM   28  C35         0     -17.449  11.135  20.914  1.00  0.00     0.000 C 
HETATM   29  C33         0     -16.045  10.865  21.489  1.00  0.00     0.000 C 
HETATM   30  C32         0     -16.130  11.259  22.915  1.00  0.00     0.000 C 
BRANCH  28  31
HETATM   31  N22         0     -17.336  11.512  19.483  1.00  0.00     0.000 N 
HETATM   32  C42         0     -18.270  10.903  18.661  1.00  0.00     0.000 A 
HETATM   33  C45         0     -18.297  11.155  17.313  1.00  0.00     0.000 A 
HETATM   34  C46         0     -17.393  12.042  16.775  1.00  0.00     0.000 A 
HETATM   35  C43         0     -16.461  12.703  17.553  1.00  0.00     0.000 A 
HETATM   36  C41         0     -16.430  12.437  18.935  1.00  0.00     0.000 A 
BRANCH  35  37
HETATM   37  C48         0     -15.519  13.643  16.808  1.00  0.00     0.000 C 
HETATM   38  N27         0     -15.832  14.989  16.534  1.00  0.00     0.000 N 
HETATM   39  H76         0     -16.495  15.543  17.056  1.00  0.00     0.000 HD
HETATM   40  O20         0     -14.498  13.186  16.347  1.00  0.00     0.000 OA
BRANCH  38  41
HETATM   41  O79         0     -15.312  15.783  15.382  1.00  0.00     0.000 OA
BRANCH  41  42
HETATM   42  C94         0     -15.855  16.862  14.674  1.00  0.00     0.000 A 
HETATM   43  C88         0     -15.669  16.936  13.279  1.00  0.00     0.000 A 
HETATM   44  C82         0     -14.927  15.841  12.480  1.00  0.00     0.000 C 
HETATM   45  C92         0     -16.193  18.019  12.560  1.00  0.00     0.000 A 
HETATM   46  C84         0     -15.085  14.472  13.148  1.00  0.00     0.000 C 
HETATM   47  C81         0     -15.548  15.781  11.045  1.00  0.00     0.000 C 
HETATM   48  C87         0     -14.347  13.405  12.343  1.00  0.00     0.000 C 
HETATM   49  C85         0     -14.937  13.282  10.937  1.00  0.00     0.000 C 
HETATM   50  C83         0     -14.983  14.616  10.172  1.00  0.00     0.000 C 
HETATM   51  C90         0     -13.595  14.947   9.604  1.00  0.00     0.000 C 
HETATM   52  C91         0     -15.934  14.408   8.985  1.00  0.00     0.000 C 
HETATM   53  C86         0     -15.255  17.111  10.371  1.00  0.00     0.000 C 
HETATM   54  C89         0     -16.055  18.199  11.054  1.00  0.00     0.000 C 
HETATM   55  C95         0     -16.912  18.999  13.195  1.00  0.00     0.000 A 
HETATM   56  C96         0     -17.141  18.925  14.548  1.00  0.00     0.000 A 
HETATM   57  C97         0     -16.624  17.871  15.287  1.00  0.00     0.000 A 
BRANCH  44  58
HETATM   58  C93         0     -13.448  16.188  12.412  1.00  0.00     0.000 C 
HETATM   59  O78         0     -12.623  15.386  12.787  1.00  0.00     0.000 OA
BRANCH  58  60
HETATM   60  O77         0     -13.047  17.390  11.920  1.00  0.00     0.000 OA
HETATM   61 0H12         0     -13.531  17.802  11.198  1.00  0.00     0.000 HD
ENDBRANCH  58  60
ENDBRANCH  44  58
BRANCH  56  62
HETATM   62  C98         0     -17.983  20.000  15.235  1.00  0.00     0.000 C 
HETATM   63  0C1         0     -17.612  21.393  14.735  1.00  0.00     0.000 C 
HETATM   64  C99         0     -19.485  19.781  14.983  1.00  0.00     0.000 C 
ENDBRANCH  56  62
BRANCH  57  65
HETATM   65  O80         0     -16.959  17.910  16.605  1.00  0.00     0.000 OA
HETATM   66  1C1         0     -16.174  18.316  17.695  1.00  0.00     0.000 C 
ENDBRANCH  57  65
ENDBRANCH  41  42
ENDBRANCH  38  41
ENDBRANCH  35  37
ENDBRANCH  28  31
BRANCH  29  67
HETATM   67  O10         0     -15.690   9.500  21.346  1.00  0.00     0.000 OA
HETATM   68  H64         0     -15.137   9.319  22.110  1.00  0.00     0.000 HD
ENDBRANCH  29  67
BRANCH  30  69
HETATM   69  O9          0     -15.809  10.178  23.776  1.00  0.00     0.000 OA
HETATM   70  H63         0     -15.122   9.692  23.316  1.00  0.00     0.000 HD
ENDBRANCH  30  69
ENDBRANCH  25  26
ENDBRANCH  24  25
ENDBRANCH  22  24
BRANCH  22  71
HETATM   71  O17         0     -18.883  10.388  26.030  1.00  0.00     0.000 OA
HETATM   72  H73         0     -19.683  10.474  25.512  1.00  0.00     0.000 HD
ENDBRANCH  22  71
ENDBRANCH  21  22
ENDBRANCH  17  21
ENDBRANCH  16  17
ENDBRANCH  15  16
ENDBRANCH  10  15
BRANCH  12  73
HETATM   73  N21         0     -21.576  14.423  33.461  1.00  0.00     0.000 N 
HETATM   74  C39         0     -22.451  14.611  32.448  1.00  0.00     0.000 A 
HETATM   75  N23         0     -23.531  15.296  32.876  1.00  0.00     0.000 NA
HETATM   76  C40         0     -23.306  15.535  34.177  1.00  0.00     0.000 A 
HETATM   77  C44         0     -24.090  16.198  35.097  1.00  0.00     0.000 A 
HETATM   78  C38         0     -22.104  15.004  34.538  1.00  0.00     0.000 A 
HETATM   79  N25         0     -23.608  16.305  36.394  1.00  0.00     0.000 NA
HETATM   80  C47         0     -22.380  15.767  36.758  1.00  0.00     0.000 A 
HETATM   81  N24         0     -21.606  15.098  35.821  1.00  0.00     0.000 NA
BRANCH  77  82
HETATM   82  N26         0     -25.341  16.745  34.742  1.00  0.00     0.000 N 
HETATM   83  H75         0     -26.182  16.214  34.564  1.00  0.00     0.000 HD
HETATM   84  H74         0     -25.545  17.733  34.667  1.00  0.00     0.000 HD
ENDBRANCH  77  82
ENDBRANCH  12  73
ENDBRANCH   7   8
ENDBRANCH   1   7
TORSDOF 27
ENDMDL
MODEL 2
REMARK VINA RESULT:      -7.8      8.796     12.549
REMARK  27 active torsions:
REMARK  status: ('A' for Active; 'I' for Inactive)
REMARK    1  A    between atoms: P1_1  and  O13_3 
REMARK    2  A    between atoms: P1_1  and  O14_5 
REMARK    3  A    between atoms: P1_1  and  O6_7 
REMARK    4  A    between atoms: P2_17  and  O16_19 
REMARK    5  A    between atoms: P2_17  and  O8_16 
REMARK    6  A    between atoms: P2_17  and  O12_21 
REMARK    7  A    between atoms: P3_22  and  O12_21 
REMARK    8  A    between atoms: P3_22  and  O11_24 
REMARK    9  A    between atoms: P3_22  and  O17_71 
REMARK   10  A    between atoms: O6_7  and  C28_8 
REMARK   11  A    between atoms: O7_13  and  C29_9 
REMARK   12  A    between atoms: O8_16  and  C36_15 
REMARK   13  A    between atoms: O9_69  and  C32_30 
REMARK   14  A    between atoms: O10_67  and  C33_29 
REMARK   15  A    between atoms: O11_24  and  C37_25 
REMARK   16  A    between atoms: N21_73  and  C30_12 
REMARK   17  A    between atoms: N22_31  and  C35_28 
REMARK   18  A    between atoms: N26_82  and  C44_77 
REMARK   19  A    between atoms: N27_38  and  O79_41 
REMARK       I    between atoms: N27_38  and  C48_37 
REMARK   20  A    between atoms: C31_10  and  C36_15 
REMARK   21  A    between atoms: C34_26  and  C37_25 
REMARK   22  A    between atoms: C43_35  and  C48_37 
REMARK   23  A    between atoms: O77_60  and  C93_58 
REMARK   24  A    between atoms: O79_41  and  C94_42 
REMARK   25  A    between atoms: O80_65  and  C97_57 
REMARK   26  A    between atoms: C82_44  and  C93_58 
REMARK   27  A    between atoms: C96_56  and  C98_62 
ROOT
HETATM    1  P1          0     -12.141  13.939  12.859  1.00  0.00     0.000 P 
HETATM    2  O15         0     -11.471  13.876  11.573  1.00  0.00     0.000 OA
ENDROOT
BRANCH   1   3
HETATM    3  O13         0     -12.510  12.418  13.350  1.00  0.00     0.000 OA
HETATM    4  H69         0     -11.659  12.004  13.503  1.00  0.00     0.000 HD
ENDBRANCH   1   3
BRANCH   1   5
HETATM    5  O14         0     -13.515  14.824  12.739  1.00  0.00     0.000 OA
HETATM    6  H70         0     -13.552  15.316  13.565  1.00  0.00     0.000 HD
ENDBRANCH   1   5
BRANCH   1   7
HETATM    7  O6          0     -11.139  14.627  13.967  1.00  0.00     0.000 OA
BRANCH   7   8
HETATM    8  C28         0     -11.801  15.206  15.094  1.00  0.00     0.000 C 
HETATM    9  C29         0     -11.766  16.697  15.034  1.00  0.00     0.000 C 
HETATM   10  C31         0     -11.467  17.143  16.448  1.00  0.00     0.000 C 
HETATM   11  O4          0     -11.188  15.991  17.256  1.00  0.00     0.000 OA
HETATM   12  C30         0     -11.093  14.848  16.400  1.00  0.00     0.000 C 
BRANCH   9  13
HETATM   13  O7          0     -10.757  17.151  14.143  1.00  0.00     0.000 OA
HETATM   14  H61         0      -9.979  17.273  14.693  1.00  0.00     0.000 HD
ENDBRANCH   9  13
BRANCH  10  15
HETATM   15  C36         0     -12.692  17.882  17.034  1.00  0.00     0.000 C 
BRANCH  15  16
HETATM   16  O8          0     -13.606  17.064  17.781  1.00  0.00     0.000 OA
BRANCH  16  17
HETATM   17  P2          0     -15.123  16.938  17.165  1.00  0.00     0.000 P 
HETATM   18  O18         0     -15.064  16.309  15.859  1.00  0.00     0.000 OA
BRANCH  17  19
HETATM   19  O16         0     -15.821  18.416  17.017  1.00  0.00     0.000 OA
HETATM   20  H72         0     -15.254  19.004  17.522  1.00  0.00     0.000 HD
ENDBRANCH  17  19
BRANCH  17  21
HETATM   21  O12         0     -15.974  15.972  18.184  1.00  0.00     0.000 OA
BRANCH  21  22
HETATM   22  P3          0     -15.840  16.483  19.739  1.00  0.00     0.000 P 
HETATM   23  O19         0     -16.028  17.918  19.852  1.00  0.00     0.000 OA
BRANCH  22  24
HETATM   24  O11         0     -17.003  15.661  20.552  1.00  0.00     0.000 OA
BRANCH  24  25
HETATM   25  C37         0     -16.469  14.557  21.282  1.00  0.00     0.000 C 
BRANCH  25  26
HETATM   26  C34         0     -16.971  13.243  20.686  1.00  0.00     0.000 C 
HETATM   27  O5          0     -17.504  13.400  19.343  1.00  0.00     0.000 OA
HETATM   28  C35         0     -17.451  12.041  18.858  1.00  0.00     0.000 C 
HETATM   29  C33         0     -16.127  11.468  19.399  1.00  0.00     0.000 C 
HETATM   30  C32         0     -15.817  12.280  20.599  1.00  0.00     0.000 C 
BRANCH  28  31
HETATM   31  N22         0     -17.490  11.896  17.381  1.00  0.00     0.000 N 
HETATM   32  C42         0     -18.359  10.916  16.931  1.00  0.00     0.000 A 
HETATM   33  C45         0     -18.510  10.666  15.591  1.00  0.00     0.000 A 
HETATM   34  C46         0     -17.799  11.415  14.682  1.00  0.00     0.000 A 
HETATM   35  C43         0     -16.943  12.427  15.073  1.00  0.00     0.000 A 
HETATM   36  C41         0     -16.784  12.677  16.449  1.00  0.00     0.000 A 
BRANCH  35  37
HETATM   37  C48         0     -16.216  13.156  13.949  1.00  0.00     0.000 C 
HETATM   38  N27         0     -16.363  14.536  13.704  1.00  0.00     0.000 N 
HETATM   39  H76         0     -16.657  15.214  14.392  1.00  0.00     0.000 HD
HETATM   40  O20         0     -15.558  12.503  13.171  1.00  0.00     0.000 OA
BRANCH  38  41
HETATM   41  O79         0     -16.203  15.205  12.380  1.00  0.00     0.000 OA
BRANCH  41  42
HETATM   42  C94         0     -17.099  15.933  11.589  1.00  0.00     0.000 A 
HETATM   43  C88         0     -16.917  15.970  10.192  1.00  0.00     0.000 A 
HETATM   44  C82         0     -15.787  15.191   9.481  1.00  0.00     0.000 C 
HETATM   45  C92         0     -17.798  16.708   9.390  1.00  0.00     0.000 A 
HETATM   46  C84         0     -15.423  13.921  10.256  1.00  0.00     0.000 C 
HETATM   47  C81         0     -16.296  14.789   8.057  1.00  0.00     0.000 C 
HETATM   48  C87         0     -14.308  13.167   9.536  1.00  0.00     0.000 C 
HETATM   49  C85         0     -14.764  12.721   8.147  1.00  0.00     0.000 C 
HETATM   50  C83         0     -15.300  13.873   7.278  1.00  0.00     0.000 C 
HETATM   51  C90         0     -14.132  14.672   6.682  1.00  0.00     0.000 C 
HETATM   52  C91         0     -16.062  13.225   6.113  1.00  0.00     0.000 C 
HETATM   53  C86         0     -16.520  16.075   7.279  1.00  0.00     0.000 C 
HETATM   54  C89         0     -17.696  16.816   7.875  1.00  0.00     0.000 C 
HETATM   55  C95         0     -18.857  17.378   9.947  1.00  0.00     0.000 A 
HETATM   56  C96         0     -19.079  17.322  11.302  1.00  0.00     0.000 A 
HETATM   57  C97         0     -18.216  16.608  12.122  1.00  0.00     0.000 A 
BRANCH  44  58
HETATM   58  C93         0     -14.556  16.078   9.383  1.00  0.00     0.000 C 
HETATM   59  O78         0     -14.649  17.190   8.913  1.00  0.00     0.000 OA
BRANCH  58  60
HETATM   60  O77         0     -13.353  15.634   9.834  1.00  0.00     0.000 OA
HETATM   61 0H12         0     -12.746  16.240  10.270  1.00  0.00     0.000 HD
ENDBRANCH  58  60
ENDBRANCH  44  58
BRANCH  56  62
HETATM   62  C98         0     -20.290  18.035  11.904  1.00  0.00     0.000 C 
HETATM   63  0C1         0     -20.583  19.338  11.167  1.00  0.00     0.000 C 
HETATM   64  C99         0     -21.549  17.151  11.840  1.00  0.00     0.000 C 
ENDBRANCH  56  62
BRANCH  57  65
HETATM   65  O80         0     -18.578  16.612  13.433  1.00  0.00     0.000 OA
HETATM   66  1C1         0     -18.139  17.464  14.458  1.00  0.00     0.000 C 
ENDBRANCH  57  65
ENDBRANCH  41  42
ENDBRANCH  38  41
ENDBRANCH  35  37
ENDBRANCH  28  31
BRANCH  29  67
HETATM   67  O10         0     -16.261  10.094  19.721  1.00  0.00     0.000 OA
HETATM   68  H64         0     -15.646   9.652  19.132  1.00  0.00     0.000 HD
ENDBRANCH  29  67
BRANCH  30  69
HETATM   69  O9          0     -15.706  11.474  21.761  1.00  0.00     0.000 OA
HETATM   70  H63         0     -16.444  10.866  21.710  1.00  0.00     0.000 HD
ENDBRANCH  30  69
ENDBRANCH  25  26
ENDBRANCH  24  25
ENDBRANCH  22  24
BRANCH  22  71
HETATM   71  O17         0     -14.385  16.033  20.344  1.00  0.00     0.000 OA
HETATM   72  H73         0     -13.827  16.804  20.241  1.00  0.00     0.000 HD
ENDBRANCH  22  71
ENDBRANCH  21  22
ENDBRANCH  17  21
ENDBRANCH  16  17
ENDBRANCH  15  16
ENDBRANCH  10  15
BRANCH  12  73
HETATM   73  N21         0     -11.707  13.668  17.046  1.00  0.00     0.000 N 
HETATM   74  C39         0     -12.651  13.630  18.013  1.00  0.00     0.000 A 
HETATM   75  N23         0     -12.956  12.355  18.327  1.00  0.00     0.000 NA
HETATM   76  C40         0     -12.176  11.600  17.539  1.00  0.00     0.000 A 
HETATM   77  C44         0     -12.084  10.227  17.449  1.00  0.00     0.000 A 
HETATM   78  C38         0     -11.405  12.403  16.755  1.00  0.00     0.000 A 
HETATM   79  N25         0     -11.179   9.701  16.539  1.00  0.00     0.000 NA
HETATM   80  C47         0     -10.390  10.523  15.743  1.00  0.00     0.000 A 
HETATM   81  N24         0     -10.499  11.903  15.843  1.00  0.00     0.000 NA
BRANCH  77  82
HETATM   82  N26         0     -12.882   9.381  18.248  1.00  0.00     0.000 N 
HETATM   83  H75         0     -13.482   8.645  17.901  1.00  0.00     0.000 HD
HETATM   84  H74         0     -12.911   9.389  19.258  1.00  0.00     0.000 HD
ENDBRANCH  77  82
ENDBRANCH  12  73
ENDBRANCH   7   8
ENDBRANCH   1   7
TORSDOF 27
ENDMDL
MODEL 3
REMARK VINA RESULT:      -7.7      5.761      7.513
REMARK  27 active torsions:
REMARK  status: ('A' for Active; 'I' for Inactive)
REMARK    1  A    between atoms: P1_1  and  O13_3 
REMARK    2  A    between atoms: P1_1  and  O14_5 
REMARK    3  A    between atoms: P1_1  and  O6_7 
REMARK    4  A    between atoms: P2_17  and  O16_19 
REMARK    5  A    between atoms: P2_17  and  O8_16 
REMARK    6  A    between atoms: P2_17  and  O12_21 
REMARK    7  A    between atoms: P3_22  and  O12_21 
REMARK    8  A    between atoms: P3_22  and  O11_24 
REMARK    9  A    between atoms: P3_22  and  O17_71 
REMARK   10  A    between atoms: O6_7  and  C28_8 
REMARK   11  A    between atoms: O7_13  and  C29_9 
REMARK   12  A    between atoms: O8_16  and  C36_15 
REMARK   13  A    between atoms: O9_69  and  C32_30 
REMARK   14  A    between atoms: O10_67  and  C33_29 
REMARK   15  A    between atoms: O11_24  and  C37_25 
REMARK   16  A    between atoms: N21_73  and  C30_12 
REMARK   17  A    between atoms: N22_31  and  C35_28 
REMARK   18  A    between atoms: N26_82  and  C44_77 
REMARK   19  A    between atoms: N27_38  and  O79_41 
REMARK       I    between atoms: N27_38  and  C48_37 
REMARK   20  A    between atoms: C31_10  and  C36_15 
REMARK   21  A    between atoms: C34_26  and  C37_25 
REMARK   22  A    between atoms: C43_35  and  C48_37 
REMARK   23  A    between atoms: O77_60  and  C93_58 
REMARK   24  A    between atoms: O79_41  and  C94_42 
REMARK   25  A    between atoms: O80_65  and  C97_57 
REMARK   26  A    between atoms: C82_44  and  C93_58 
REMARK   27  A    between atoms: C96_56  and  C98_62 
ROOT
HETATM    1  P1          0     -12.715  18.658  23.052  1.00  0.00     0.000 P 
HETATM    2  O15         0     -11.985  18.805  21.807  1.00  0.00     0.000 OA
ENDROOT
BRANCH   1   3
HETATM    3  O13         0     -13.049  20.145  23.659  1.00  0.00     0.000 OA
HETATM    4  H69         0     -12.308  20.340  24.235  1.00  0.00     0.000 HD
ENDBRANCH   1   3
BRANCH   1   5
HETATM    5  O14         0     -11.824  17.811  24.136  1.00  0.00     0.000 OA
HETATM    6  H70         0     -11.305  17.208  23.595  1.00  0.00     0.000 HD
ENDBRANCH   1   5
BRANCH   1   7
HETATM    7  O6          0     -14.131  17.870  22.769  1.00  0.00     0.000 OA
BRANCH   7   8
HETATM    8  C28         0     -14.634  17.124  23.880  1.00  0.00     0.000 C 
HETATM    9  C29         0     -15.171  15.801  23.444  1.00  0.00     0.000 C 
HETATM   10  C31         0     -16.450  15.614  24.229  1.00  0.00     0.000 C 
HETATM   11  O4          0     -16.731  16.816  24.962  1.00  0.00     0.000 OA
HETATM   12  C30         0     -15.817  17.832  24.536  1.00  0.00     0.000 C 
BRANCH   9  13
HETATM   13  O7          0     -15.436  15.790  22.048  1.00  0.00     0.000 OA
HETATM   14  H61         0     -16.116  15.121  21.931  1.00  0.00     0.000 HD
ENDBRANCH   9  13
BRANCH  10  15
HETATM   15  C36         0     -16.286  14.446  25.227  1.00  0.00     0.000 C 
BRANCH  15  16
HETATM   16  O8          0     -17.391  14.237  26.119  1.00  0.00     0.000 OA
BRANCH  16  17
HETATM   17  P2          0     -18.099  12.756  26.049  1.00  0.00     0.000 P 
HETATM   18  O18         0     -19.251  12.730  26.931  1.00  0.00     0.000 OA
BRANCH  17  19
HETATM   19  O16         0     -17.048  11.582  26.505  1.00  0.00     0.000 OA
HETATM   20  H72         0     -16.608  11.320  25.692  1.00  0.00     0.000 HD
ENDBRANCH  17  19
BRANCH  17  21
HETATM   21  O12         0     -18.606  12.541  24.502  1.00  0.00     0.000 OA
BRANCH  21  22
HETATM   22  P3          0     -19.592  11.234  24.375  1.00  0.00     0.000 P 
HETATM   23  O19         0     -20.982  11.622  24.215  1.00  0.00     0.000 OA
BRANCH  22  24
HETATM   24  O11         0     -19.042  10.420  23.062  1.00  0.00     0.000 OA
BRANCH  24  25
HETATM   25  C37         0     -19.333  11.105  21.845  1.00  0.00     0.000 C 
BRANCH  25  26
HETATM   26  C34         0     -18.052  11.303  21.036  1.00  0.00     0.000 C 
HETATM   27  O5          0     -18.193  10.894  19.649  1.00  0.00     0.000 OA
HETATM   28  C35         0     -17.089  11.594  19.035  1.00  0.00     0.000 C 
HETATM   29  C33         0     -17.051  12.973  19.721  1.00  0.00     0.000 C 
HETATM   30  C32         0     -17.702  12.767  21.036  1.00  0.00     0.000 C 
BRANCH  28  31
HETATM   31  N22         0     -17.195  11.773  17.565  1.00  0.00     0.000 N 
HETATM   32  C42         0     -18.079  10.903  16.950  1.00  0.00     0.000 A 
HETATM   33  C45         0     -18.291  10.948  15.595  1.00  0.00     0.000 A 
HETATM   34  C46         0     -17.625  11.887  14.842  1.00  0.00     0.000 A 
HETATM   35  C43         0     -16.756  12.802  15.407  1.00  0.00     0.000 A 
HETATM   36  C41         0     -16.536  12.748  16.796  1.00  0.00     0.000 A 
BRANCH  35  37
HETATM   37  C48         0     -16.084  13.768  14.438  1.00  0.00     0.000 C 
HETATM   38  N27         0     -16.664  14.990  14.043  1.00  0.00     0.000 N 
HETATM   39  H76         0     -17.358  15.495  14.573  1.00  0.00     0.000 HD
HETATM   40  O20         0     -15.051  13.426  13.908  1.00  0.00     0.000 OA
BRANCH  38  41
HETATM   41  O79         0     -16.421  15.686  12.745  1.00  0.00     0.000 OA
BRANCH  41  42
HETATM   42  C94         0     -17.297  16.275  11.826  1.00  0.00     0.000 A 
HETATM   43  C88         0     -17.007  16.198  10.449  1.00  0.00     0.000 A 
HETATM   44  C82         0     -15.777  15.441   9.899  1.00  0.00     0.000 C 
HETATM   45  C92         0     -17.868  16.796   9.518  1.00  0.00     0.000 A 
HETATM   46  C84         0     -15.395  14.276  10.816  1.00  0.00     0.000 C 
HETATM   47  C81         0     -16.145  14.877   8.487  1.00  0.00     0.000 C 
HETATM   48  C87         0     -14.180  13.541  10.255  1.00  0.00     0.000 C 
HETATM   49  C85         0     -14.495  12.940   8.885  1.00  0.00     0.000 C 
HETATM   50  C83         0     -15.033  13.967   7.873  1.00  0.00     0.000 C 
HETATM   51  C90         0     -13.876  14.791   7.291  1.00  0.00     0.000 C 
HETATM   52  C91         0     -15.658  13.164   6.723  1.00  0.00     0.000 C 
HETATM   53  C86         0     -16.389  16.068   7.575  1.00  0.00     0.000 C 
HETATM   54  C89         0     -17.654  16.774   8.011  1.00  0.00     0.000 C 
HETATM   55  C95         0     -19.009  17.437   9.930  1.00  0.00     0.000 A 
HETATM   56  C96         0     -19.333  17.487  11.264  1.00  0.00     0.000 A 
HETATM   57  C97         0     -18.493  16.914  12.209  1.00  0.00     0.000 A 
BRANCH  44  58
HETATM   58  C93         0     -14.602  16.401   9.806  1.00  0.00     0.000 C 
HETATM   59  O78         0     -14.783  17.544   9.450  1.00  0.00     0.000 OA
BRANCH  58  60
HETATM   60  O77         0     -13.350  15.987  10.136  1.00  0.00     0.000 OA
HETATM   61 0H12         0     -12.603  16.586  10.045  1.00  0.00     0.000 HD
ENDBRANCH  58  60
ENDBRANCH  44  58
BRANCH  56  62
HETATM   62  C98         0     -20.631  18.163  11.706  1.00  0.00     0.000 C 
HETATM   63  0C1         0     -20.840  19.484  10.971  1.00  0.00     0.000 C 
HETATM   64  C99         0     -21.850  17.264  11.437  1.00  0.00     0.000 C 
ENDBRANCH  56  62
BRANCH  57  65
HETATM   65  O80         0     -18.958  17.010  13.484  1.00  0.00     0.000 OA
HETATM   66  1C1         0     -18.608  17.943  14.473  1.00  0.00     0.000 C 
ENDBRANCH  57  65
ENDBRANCH  41  42
ENDBRANCH  38  41
ENDBRANCH  35  37
ENDBRANCH  28  31
BRANCH  29  67
HETATM   67  O10         0     -15.719  13.434  19.866  1.00  0.00     0.000 OA
HETATM   68  H64         0     -15.812  14.327  20.204  1.00  0.00     0.000 HD
ENDBRANCH  29  67
BRANCH  30  69
HETATM   69  O9          0     -16.836  13.108  22.107  1.00  0.00     0.000 OA
HETATM   70  H63         0     -16.474  13.963  21.868  1.00  0.00     0.000 HD
ENDBRANCH  30  69
ENDBRANCH  25  26
ENDBRANCH  24  25
ENDBRANCH  22  24
BRANCH  22  71
HETATM   71  O17         0     -19.400  10.271  25.687  1.00  0.00     0.000 OA
HETATM   72  H73         0     -18.802  10.750  26.259  1.00  0.00     0.000 HD
ENDBRANCH  22  71
ENDBRANCH  21  22
ENDBRANCH  17  21
ENDBRANCH  16  17
ENDBRANCH  15  16
ENDBRANCH  10  15
BRANCH  12  73
HETATM   73  N21         0     -15.389  18.653  25.689  1.00  0.00     0.000 N 
HETATM   74  C39         0     -14.384  18.423  26.563  1.00  0.00     0.000 A 
HETATM   75  N23         0     -14.307  19.419  27.468  1.00  0.00     0.000 NA
HETATM   76  C40         0     -15.291  20.271  27.143  1.00  0.00     0.000 A 
HETATM   77  C44         0     -15.658  21.459  27.738  1.00  0.00     0.000 A 
HETATM   78  C38         0     -15.959  19.801  26.053  1.00  0.00     0.000 A 
HETATM   79  N25         0     -16.731  22.148  27.191  1.00  0.00     0.000 NA
HETATM   80  C47         0     -17.414  21.664  26.082  1.00  0.00     0.000 A 
HETATM   81  N24         0     -17.027  20.470  25.492  1.00  0.00     0.000 NA
BRANCH  77  82
HETATM   82  N26         0     -14.970  21.964  28.862  1.00  0.00     0.000 N 
HETATM   83  H75         0     -15.349  22.618  29.533  1.00  0.00     0.000 HD
HETATM   84  H74         0     -14.038  21.695  29.144  1.00  0.00     0.000 HD
ENDBRANCH  77  82
ENDBRANCH  12  73
ENDBRANCH   7   8
ENDBRANCH   1   7
TORSDOF 27
ENDMDL
MODEL 4
REMARK VINA RESULT:      -7.7      1.653      3.784
REMARK  27 active torsions:
REMARK  status: ('A' for Active; 'I' for Inactive)
REMARK    1  A    between atoms: P1_1  and  O13_3 
REMARK    2  A    between atoms: P1_1  and  O14_5 
REMARK    3  A    between atoms: P1_1  and  O6_7 
REMARK    4  A    between atoms: P2_17  and  O16_19 
REMARK    5  A    between atoms: P2_17  and  O8_16 
REMARK    6  A    between atoms: P2_17  and  O12_21 
REMARK    7  A    between atoms: P3_22  and  O12_21 
REMARK    8  A    between atoms: P3_22  and  O11_24 
REMARK    9  A    between atoms: P3_22  and  O17_71 
REMARK   10  A    between atoms: O6_7  and  C28_8 
REMARK   11  A    between atoms: O7_13  and  C29_9 
REMARK   12  A    between atoms: O8_16  and  C36_15 
REMARK   13  A    between atoms: O9_69  and  C32_30 
REMARK   14  A    between atoms: O10_67  and  C33_29 
REMARK   15  A    between atoms: O11_24  and  C37_25 
REMARK   16  A    between atoms: N21_73  and  C30_12 
REMARK   17  A    between atoms: N22_31  and  C35_28 
REMARK   18  A    between atoms: N26_82  and  C44_77 
REMARK   19  A    between atoms: N27_38  and  O79_41 
REMARK       I    between atoms: N27_38  and  C48_37 
REMARK   20  A    between atoms: C31_10  and  C36_15 
REMARK   21  A    between atoms: C34_26  and  C37_25 
REMARK   22  A    between atoms: C43_35  and  C48_37 
REMARK   23  A    between atoms: O77_60  and  C93_58 
REMARK   24  A    between atoms: O79_41  and  C94_42 
REMARK   25  A    between atoms: O80_65  and  C97_57 
REMARK   26  A    between atoms: C82_44  and  C93_58 
REMARK   27  A    between atoms: C96_56  and  C98_62 
ROOT
HETATM    1  P1          0     -21.813  11.075  35.342  1.00  0.00     0.000 P 
HETATM    2  O15         0     -22.745  11.120  34.231  1.00  0.00     0.000 OA
ENDROOT
BRANCH   1   3
HETATM    3  O13         0     -21.725   9.539  35.910  1.00  0.00     0.000 OA
HETATM    4  H69         0     -21.640   8.998  35.124  1.00  0.00     0.000 HD
ENDBRANCH   1   3
BRANCH   1   5
HETATM    5  O14         0     -22.313  12.075  36.541  1.00  0.00     0.000 OA
HETATM    6  H70         0     -21.640  11.981  37.223  1.00  0.00     0.000 HD
ENDBRANCH   1   5
BRANCH   1   7
HETATM    7  O6          0     -20.322  11.538  34.827  1.00  0.00     0.000 OA
BRANCH   7   8
HETATM    8  C28         0     -20.295  12.132  33.526  1.00  0.00     0.000 C 
HETATM    9  C29         0     -19.131  11.639  32.731  1.00  0.00     0.000 C 
HETATM   10  C31         0     -18.587  12.862  32.028  1.00  0.00     0.000 C 
HETATM   11  O4          0     -19.283  14.025  32.499  1.00  0.00     0.000 OA
HETATM   12  C30         0     -20.103  13.645  33.609  1.00  0.00     0.000 C 
BRANCH   9  13
HETATM   13  O7          0     -18.142  11.064  33.573  1.00  0.00     0.000 OA
HETATM   14  H61         0     -17.781  10.332  33.065  1.00  0.00     0.000 HD
ENDBRANCH   9  13
BRANCH  10  15
HETATM   15  C36         0     -18.805  12.730  30.504  1.00  0.00     0.000 C 
BRANCH  15  16
HETATM   16  O8          0     -18.444  13.882  29.727  1.00  0.00     0.000 OA
BRANCH  16  17
HETATM   17  P2          0     -17.253  13.657  28.620  1.00  0.00     0.000 P 
HETATM   18  O18         0     -15.965  13.916  29.237  1.00  0.00     0.000 OA
BRANCH  17  19
HETATM   19  O16         0     -17.445  14.664  27.338  1.00  0.00     0.000 OA
HETATM   20  H72         0     -16.578  15.056  27.205  1.00  0.00     0.000 HD
ENDBRANCH  17  19
BRANCH  17  21
HETATM   21  O12         0     -17.318  12.082  28.161  1.00  0.00     0.000 OA
BRANCH  21  22
HETATM   22  P3          0     -18.187  11.900  26.779  1.00  0.00     0.000 P 
HETATM   23  O19         0     -19.488  12.535  26.874  1.00  0.00     0.000 OA
BRANCH  22  24
HETATM   24  O11         0     -17.266  12.590  25.611  1.00  0.00     0.000 OA
BRANCH  24  25
HETATM   25  C37         0     -18.020  12.881  24.435  1.00  0.00     0.000 C 
BRANCH  25  26
HETATM   26  C34         0     -17.816  11.780  23.397  1.00  0.00     0.000 C 
HETATM   27  O5          0     -18.253  12.172  22.067  1.00  0.00     0.000 OA
HETATM   28  C35         0     -17.546  11.218  21.245  1.00  0.00     0.000 C 
HETATM   29  C33         0     -16.154  11.077  21.891  1.00  0.00     0.000 C 
HETATM   30  C32         0     -16.347  11.465  23.309  1.00  0.00     0.000 C 
BRANCH  28  31
HETATM   31  N22         0     -17.395  11.601  19.819  1.00  0.00     0.000 N 
HETATM   32  C42         0     -18.264  10.947  18.962  1.00  0.00     0.000 A 
HETATM   33  C45         0     -18.251  11.200  17.613  1.00  0.00     0.000 A 
HETATM   34  C46         0     -17.372  12.130  17.111  1.00  0.00     0.000 A 
HETATM   35  C43         0     -16.505  12.837  17.924  1.00  0.00     0.000 A 
HETATM   36  C41         0     -16.515  12.571  19.306  1.00  0.00     0.000 A 
BRANCH  35  37
HETATM   37  C48         0     -15.582  13.822  17.217  1.00  0.00     0.000 C 
HETATM   38  N27         0     -15.753  15.219  17.281  1.00  0.00     0.000 N 
HETATM   39  H76         0     -16.240  15.706  18.019  1.00  0.00     0.000 HD
HETATM   40  O20         0     -14.722  13.382  16.487  1.00  0.00     0.000 OA
BRANCH  38  41
HETATM   41  O79         0     -15.329  16.194  16.233  1.00  0.00     0.000 OA
BRANCH  41  42
HETATM   42  C94         0     -16.065  17.041  15.396  1.00  0.00     0.000 A 
HETATM   43  C88         0     -16.125  18.419  15.687  1.00  0.00     0.000 A 
HETATM   44  C82         0     -15.364  19.051  16.874  1.00  0.00     0.000 C 
HETATM   45  C92         0     -16.871  19.276  14.866  1.00  0.00     0.000 A 
HETATM   46  C84         0     -14.084  18.270  17.185  1.00  0.00     0.000 C 
HETATM   47  C81         0     -14.981  20.516  16.481  1.00  0.00     0.000 C 
HETATM   48  C87         0     -13.347  18.911  18.358  1.00  0.00     0.000 C 
HETATM   49  C85         0     -12.921  20.339  18.014  1.00  0.00     0.000 C 
HETATM   50  C83         0     -14.083  21.230  17.540  1.00  0.00     0.000 C 
HETATM   51  C90         0     -14.897  21.720  18.746  1.00  0.00     0.000 C 
HETATM   52  C91         0     -13.449  22.460  16.875  1.00  0.00     0.000 C 
HETATM   53  C86         0     -16.278  21.290  16.309  1.00  0.00     0.000 C 
HETATM   54  C89         0     -17.003  20.777  15.085  1.00  0.00     0.000 C 
HETATM   55  C95         0     -17.526  18.793  13.762  1.00  0.00     0.000 A 
HETATM   56  C96         0     -17.448  17.460  13.436  1.00  0.00     0.000 A 
HETATM   57  C97         0     -16.726  16.587  14.237  1.00  0.00     0.000 A 
BRANCH  44  58
HETATM   58  C93         0     -16.259  19.040  18.103  1.00  0.00     0.000 C 
HETATM   59  O78         0     -15.965  18.354  19.056  1.00  0.00     0.000 OA
BRANCH  58  60
HETATM   60  O77         0     -17.380  19.807  18.143  1.00  0.00     0.000 OA
HETATM   61 0H12         0     -17.391  20.670  17.717  1.00  0.00     0.000 HD
ENDBRANCH  58  60
ENDBRANCH  44  58
BRANCH  56  62
HETATM   62  C98         0     -18.145  16.944  12.177  1.00  0.00     0.000 C 
HETATM   63  0C1         0     -19.630  17.293  12.188  1.00  0.00     0.000 C 
HETATM   64  C99         0     -17.518  17.543  10.905  1.00  0.00     0.000 C 
ENDBRANCH  56  62
BRANCH  57  65
HETATM   65  O80         0     -16.707  15.308  13.774  1.00  0.00     0.000 OA
HETATM   66  1C1         0     -17.482  14.215  14.193  1.00  0.00     0.000 C 
ENDBRANCH  57  65
ENDBRANCH  41  42
ENDBRANCH  38  41
ENDBRANCH  35  37
ENDBRANCH  28  31
BRANCH  29  67
HETATM   67  O10         0     -15.670   9.750  21.775  1.00  0.00     0.000 OA
HETATM   68  H64         0     -15.209   9.594  22.603  1.00  0.00     0.000 HD
ENDBRANCH  29  67
BRANCH  30  69
HETATM   69  O9          0     -15.973  10.419  24.192  1.00  0.00     0.000 OA
HETATM   70  H63         0     -15.025  10.515  24.300  1.00  0.00     0.000 HD
ENDBRANCH  30  69
ENDBRANCH  25  26
ENDBRANCH  24  25
ENDBRANCH  22  24
BRANCH  22  71
HETATM   71  O17         0     -18.337  10.305  26.430  1.00  0.00     0.000 OA
HETATM   72  H73         0     -18.131  10.237  25.499  1.00  0.00     0.000 HD
ENDBRANCH  22  71
ENDBRANCH  21  22
ENDBRANCH  17  21
ENDBRANCH  16  17
ENDBRANCH  15  16
ENDBRANCH  10  15
BRANCH  12  73
HETATM   73  N21         0     -21.396  14.361  33.561  1.00  0.00     0.000 N 
HETATM   74  C39         0     -22.216  14.556  32.504  1.00  0.00     0.000 A 
HETATM   75  N23         0     -23.310  15.251  32.875  1.00  0.00     0.000 NA
HETATM   76  C40         0     -23.150  15.490  34.185  1.00  0.00     0.000 A 
HETATM   77  C44         0     -23.975  16.160  35.064  1.00  0.00     0.000 A 
HETATM   78  C38         0     -21.974  14.948  34.609  1.00  0.00     0.000 A 
HETATM   79  N25         0     -23.560  16.265  36.383  1.00  0.00     0.000 NA
HETATM   80  C47         0     -22.358  15.716  36.811  1.00  0.00     0.000 A 
HETATM   81  N24         0     -21.542  15.039  35.915  1.00  0.00     0.000 NA
BRANCH  77  82
HETATM   82  N26         0     -25.201  16.719  34.643  1.00  0.00     0.000 N 
HETATM   83  H75         0     -25.924  16.226  34.139  1.00  0.00     0.000 HD
HETATM   84  H74         0     -25.508  17.662  34.837  1.00  0.00     0.000 HD
ENDBRANCH  77  82
ENDBRANCH  12  73
ENDBRANCH   7   8
ENDBRANCH   1   7
TORSDOF 27
ENDMDL
MODEL 5
REMARK VINA RESULT:      -7.5      7.475     14.544
REMARK  27 active torsions:
REMARK  status: ('A' for Active; 'I' for Inactive)
REMARK    1  A    between atoms: P1_1  and  O13_3 
REMARK    2  A    between atoms: P1_1  and  O14_5 
REMARK    3  A    between atoms: P1_1  and  O6_7 
REMARK    4  A    between atoms: P2_17  and  O16_19 
REMARK    5  A    between atoms: P2_17  and  O8_16 
REMARK    6  A    between atoms: P2_17  and  O12_21 
REMARK    7  A    between atoms: P3_22  and  O12_21 
REMARK    8  A    between atoms: P3_22  and  O11_24 
REMARK    9  A    between atoms: P3_22  and  O17_71 
REMARK   10  A    between atoms: O6_7  and  C28_8 
REMARK   11  A    between atoms: O7_13  and  C29_9 
REMARK   12  A    between atoms: O8_16  and  C36_15 
REMARK   13  A    between atoms: O9_69  and  C32_30 
REMARK   14  A    between atoms: O10_67  and  C33_29 
REMARK   15  A    between atoms: O11_24  and  C37_25 
REMARK   16  A    between atoms: N21_73  and  C30_12 
REMARK   17  A    between atoms: N22_31  and  C35_28 
REMARK   18  A    between atoms: N26_82  and  C44_77 
REMARK   19  A    between atoms: N27_38  and  O79_41 
REMARK       I    between atoms: N27_38  and  C48_37 
REMARK   20  A    between atoms: C31_10  and  C36_15 
REMARK   21  A    between atoms: C34_26  and  C37_25 
REMARK   22  A    between atoms: C43_35  and  C48_37 
REMARK   23  A    between atoms: O77_60  and  C93_58 
REMARK   24  A    between atoms: O79_41  and  C94_42 
REMARK   25  A    between atoms: O80_65  and  C97_57 
REMARK   26  A    between atoms: C82_44  and  C93_58 
REMARK   27  A    between atoms: C96_56  and  C98_62 
ROOT
HETATM    1  P1          0     -13.009  13.061  18.298  1.00  0.00     0.000 P 
HETATM    2  O15         0     -11.654  13.214  18.795  1.00  0.00     0.000 OA
ENDROOT
BRANCH   1   3
HETATM    3  O13         0     -14.019  12.791  19.561  1.00  0.00     0.000 OA
HETATM    4  H69         0     -14.684  12.196  19.212  1.00  0.00     0.000 HD
ENDBRANCH   1   3
BRANCH   1   5
HETATM    5  O14         0     -13.090  11.803  17.252  1.00  0.00     0.000 OA
HETATM    6  H70         0     -12.884  11.033  17.791  1.00  0.00     0.000 HD
ENDBRANCH   1   5
BRANCH   1   7
HETATM    7  O6          0     -13.471  14.442  17.534  1.00  0.00     0.000 OA
BRANCH   7   8
HETATM    8  C28         0     -13.448  14.374  16.106  1.00  0.00     0.000 C 
HETATM    9  C29         0     -12.419  15.294  15.537  1.00  0.00     0.000 C 
HETATM   10  C31         0     -13.080  15.933  14.337  1.00  0.00     0.000 C 
HETATM   11  O4          0     -14.459  15.536  14.292  1.00  0.00     0.000 OA
HETATM   12  C30         0     -14.771  14.843  15.504  1.00  0.00     0.000 C 
BRANCH   9  13
HETATM   13  O7          0     -12.036  16.283  16.483  1.00  0.00     0.000 OA
HETATM   14  H61         0     -12.672  16.994  16.366  1.00  0.00     0.000 HD
ENDBRANCH   9  13
BRANCH  10  15
HETATM   15  C36         0     -12.381  15.462  13.041  1.00  0.00     0.000 C 
BRANCH  15  16
HETATM   16  O8          0     -11.052  14.945  13.211  1.00  0.00     0.000 OA
BRANCH  16  17
HETATM   17  P2          0     -10.856  13.349  12.879  1.00  0.00     0.000 P 
HETATM   18  O18         0     -10.520  13.184  11.477  1.00  0.00     0.000 OA
BRANCH  17  19
HETATM   19  O16         0     -12.228  12.509  13.204  1.00  0.00     0.000 OA
HETATM   20  H72         0     -11.975  11.587  13.116  1.00  0.00     0.000 HD
ENDBRANCH  17  19
BRANCH  17  21
HETATM   21  O12         0      -9.598  12.822  13.794  1.00  0.00     0.000 OA
BRANCH  21  22
HETATM   22  P3          0      -9.637  11.190  13.976  1.00  0.00     0.000 P 
HETATM   23  O19         0      -8.321  10.650  14.266  1.00  0.00     0.000 OA
BRANCH  22  24
HETATM   24  O11         0     -10.678  10.931  15.215  1.00  0.00     0.000 OA
BRANCH  24  25
HETATM   25  C37         0     -10.034  11.021  16.485  1.00  0.00     0.000 C 
BRANCH  25  26
HETATM   26  C34         0     -10.259   9.736  17.279  1.00  0.00     0.000 C 
HETATM   27  O5          0     -10.675   9.985  18.650  1.00  0.00     0.000 OA
HETATM   28  C35         0     -11.258   8.712  19.004  1.00  0.00     0.000 C 
HETATM   29  C33         0     -12.018   8.249  17.746  1.00  0.00     0.000 C 
HETATM   30  C32         0     -11.355   8.944  16.617  1.00  0.00     0.000 C 
BRANCH  28  31
HETATM   31  N22         0     -12.185   8.742  20.162  1.00  0.00     0.000 N 
HETATM   32  C42         0     -11.737   8.032  21.264  1.00  0.00     0.000 A 
HETATM   33  C45         0     -12.481   7.971  22.416  1.00  0.00     0.000 A 
HETATM   34  C46         0     -13.681   8.641  22.479  1.00  0.00     0.000 A 
HETATM   35  C43         0     -14.160   9.392  21.421  1.00  0.00     0.000 A 
HETATM   36  C41         0     -13.399   9.447  20.239  1.00  0.00     0.000 A 
BRANCH  35  37
HETATM   37  C48         0     -15.511  10.063  21.639  1.00  0.00     0.000 C 
HETATM   38  N27         0     -15.862  11.297  21.056  1.00  0.00     0.000 N 
HETATM   39  H76         0     -15.444  11.676  20.219  1.00  0.00     0.000 HD
HETATM   40  O20         0     -16.282   9.562  22.427  1.00  0.00     0.000 OA
BRANCH  38  41
HETATM   41  O79         0     -16.831  12.280  21.622  1.00  0.00     0.000 OA
BRANCH  41  42
HETATM   42  C94         0     -17.408  12.394  22.892  1.00  0.00     0.000 A 
HETATM   43  C88         0     -16.859  13.299  23.822  1.00  0.00     0.000 A 
HETATM   44  C82         0     -15.665  14.219  23.482  1.00  0.00     0.000 C 
HETATM   45  C92         0     -17.419  13.412  25.103  1.00  0.00     0.000 A 
HETATM   46  C84         0     -15.647  14.567  21.991  1.00  0.00     0.000 C 
HETATM   47  C81         0     -15.815  15.537  24.310  1.00  0.00     0.000 C 
HETATM   48  C87         0     -14.462  15.476  21.676  1.00  0.00     0.000 C 
HETATM   49  C85         0     -14.576  16.798  22.438  1.00  0.00     0.000 C 
HETATM   50  C83         0     -14.744  16.618  23.957  1.00  0.00     0.000 C 
HETATM   51  C90         0     -13.387  16.314  24.606  1.00  0.00     0.000 C 
HETATM   52  C91         0     -15.232  17.967  24.506  1.00  0.00     0.000 C 
HETATM   53  C86         0     -15.696  15.164  25.778  1.00  0.00     0.000 C 
HETATM   54  C89         0     -16.909  14.356  26.183  1.00  0.00     0.000 C 
HETATM   55  C95         0     -18.515  12.668  25.455  1.00  0.00     0.000 A 
HETATM   56  C96         0     -19.093  11.810  24.550  1.00  0.00     0.000 A 
HETATM   57  C97         0     -18.553  11.670  23.280  1.00  0.00     0.000 A 
BRANCH  44  58
HETATM   58  C93         0     -14.370  13.505  23.836  1.00  0.00     0.000 C 
HETATM   59  O78         0     -13.981  13.495  24.982  1.00  0.00     0.000 OA
BRANCH  58  60
HETATM   60  O77         0     -13.653  12.866  22.874  1.00  0.00     0.000 OA
HETATM   61 0H12         0     -14.104  12.433  22.143  1.00  0.00     0.000 HD
ENDBRANCH  58  60
ENDBRANCH  44  58
BRANCH  56  62
HETATM   62  C98         0     -20.343  11.022  24.942  1.00  0.00     0.000 C 
HETATM   63  0C1         0     -20.053  10.069  26.097  1.00  0.00     0.000 C 
HETATM   64  C99         0     -21.487  11.960  25.365  1.00  0.00     0.000 C 
ENDBRANCH  56  62
BRANCH  57  65
HETATM   65  O80         0     -19.248  10.814  22.481  1.00  0.00     0.000 OA
HETATM   66  1C1         0     -19.499  10.914  21.104  1.00  0.00     0.000 C 
ENDBRANCH  57  65
ENDBRANCH  41  42
ENDBRANCH  38  41
ENDBRANCH  35  37
ENDBRANCH  28  31
BRANCH  29  67
HETATM   67  O10         0     -11.953   6.840  17.601  1.00  0.00     0.000 OA
HETATM   68  H64         0     -11.130   6.597  18.030  1.00  0.00     0.000 HD
ENDBRANCH  29  67
BRANCH  30  69
HETATM   69  O9          0     -10.846   8.024  15.664  1.00  0.00     0.000 OA
HETATM   70  H63         0     -10.205   8.524  15.157  1.00  0.00     0.000 HD
ENDBRANCH  30  69
ENDBRANCH  25  26
ENDBRANCH  24  25
ENDBRANCH  22  24
BRANCH  22  71
HETATM   71  O17         0     -10.270  10.502  12.629  1.00  0.00     0.000 OA
HETATM   72  H73         0     -11.217  10.585  12.732  1.00  0.00     0.000 HD
ENDBRANCH  22  71
ENDBRANCH  21  22
ENDBRANCH  17  21
ENDBRANCH  16  17
ENDBRANCH  15  16
ENDBRANCH  10  15
BRANCH  12  73
HETATM   73  N21         0     -15.676  13.706  15.228  1.00  0.00     0.000 N 
HETATM   74  C39         0     -15.896  13.067  14.057  1.00  0.00     0.000 A 
HETATM   75  N23         0     -16.790  12.071  14.223  1.00  0.00     0.000 NA
HETATM   76  C40         0     -17.126  12.109  15.521  1.00  0.00     0.000 A 
HETATM   77  C44         0     -18.002  11.310  16.225  1.00  0.00     0.000 A 
HETATM   78  C38         0     -16.447  13.114  16.140  1.00  0.00     0.000 A 
HETATM   79  N25         0     -18.166  11.573  17.578  1.00  0.00     0.000 NA
HETATM   80  C47         0     -17.476  12.603  18.205  1.00  0.00     0.000 A 
HETATM   81  N24         0     -16.594  13.394  17.482  1.00  0.00     0.000 NA
BRANCH  77  82
HETATM   82  N26         0     -18.706  10.258  15.602  1.00  0.00     0.000 N 
HETATM   83  H75         0     -19.125   9.472  16.079  1.00  0.00     0.000 HD
HETATM   84  H74         0     -18.905  10.197  14.613  1.00  0.00     0.000 HD
ENDBRANCH  77  82
ENDBRANCH  12  73
ENDBRANCH   7   8
ENDBRANCH   1   7
TORSDOF 27
ENDMDL
MODEL 6
REMARK VINA RESULT:      -7.4      5.278     13.470
REMARK  27 active torsions:
REMARK  status: ('A' for Active; 'I' for Inactive)
REMARK    1  A    between atoms: P1_1  and  O13_3 
REMARK    2  A    between atoms: P1_1  and  O14_5 
REMARK    3  A    between atoms: P1_1  and  O6_7 
REMARK    4  A    between atoms: P2_17  and  O16_19 
REMARK    5  A    between atoms: P2_17  and  O8_16 
REMARK    6  A    between atoms: P2_17  and  O12_21 
REMARK    7  A    between atoms: P3_22  and  O12_21 
REMARK    8  A    between atoms: P3_22  and  O11_24 
REMARK    9  A    between atoms: P3_22  and  O17_71 
REMARK   10  A    between atoms: O6_7  and  C28_8 
REMARK   11  A    between atoms: O7_13  and  C29_9 
REMARK   12  A    between atoms: O8_16  and  C36_15 
REMARK   13  A    between atoms: O9_69  and  C32_30 
REMARK   14  A    between atoms: O10_67  and  C33_29 
REMARK   15  A    between atoms: O11_24  and  C37_25 
REMARK   16  A    between atoms: N21_73  and  C30_12 
REMARK   17  A    between atoms: N22_31  and  C35_28 
REMARK   18  A    between atoms: N26_82  and  C44_77 
REMARK   19  A    between atoms: N27_38  and  O79_41 
REMARK       I    between atoms: N27_38  and  C48_37 
REMARK   20  A    between atoms: C31_10  and  C36_15 
REMARK   21  A    between atoms: C34_26  and  C37_25 
REMARK   22  A    between atoms: C43_35  and  C48_37 
REMARK   23  A    between atoms: O77_60  and  C93_58 
REMARK   24  A    between atoms: O79_41  and  C94_42 
REMARK   25  A    between atoms: O80_65  and  C97_57 
REMARK   26  A    between atoms: C82_44  and  C93_58 
REMARK   27  A    between atoms: C96_56  and  C98_62 
ROOT
HETATM    1  P1          0     -14.488   9.578  22.047  1.00  0.00     0.000 P 
HETATM    2  O15         0     -13.848   9.048  20.857  1.00  0.00     0.000 OA
ENDROOT
BRANCH   1   3
HETATM    3  O13         0     -13.479   9.396  23.327  1.00  0.00     0.000 OA
HETATM    4  H69         0     -13.037  10.243  23.405  1.00  0.00     0.000 HD
ENDBRANCH   1   3
BRANCH   1   5
HETATM    5  O14         0     -15.891   8.783  22.338  1.00  0.00     0.000 OA
HETATM    6  H70         0     -15.777   7.933  21.901  1.00  0.00     0.000 HD
ENDBRANCH   1   5
BRANCH   1   7
HETATM    7  O6          0     -14.796  11.180  21.837  1.00  0.00     0.000 OA
BRANCH   7   8
HETATM    8  C28         0     -16.094  11.476  21.315  1.00  0.00     0.000 C 
HETATM    9  C29         0     -16.061  11.607  19.828  1.00  0.00     0.000 C 
HETATM   10  C31         0     -16.938  12.798  19.516  1.00  0.00     0.000 C 
HETATM   11  O4          0     -17.335  13.425  20.744  1.00  0.00     0.000 OA
HETATM   12  C30         0     -16.601  12.826  21.817  1.00  0.00     0.000 C 
BRANCH   9  13
HETATM   13  O7          0     -14.736  11.825  19.362  1.00  0.00     0.000 OA
HETATM   14  H61         0     -14.830  12.449  18.637  1.00  0.00     0.000 HD
ENDBRANCH   9  13
BRANCH  10  15
HETATM   15  C36         0     -18.203  12.333  18.759  1.00  0.00     0.000 C 
BRANCH  15  16
HETATM   16  O8          0     -17.982  11.355  17.732  1.00  0.00     0.000 OA
BRANCH  16  17
HETATM   17  P2          0     -18.226  11.865  16.191  1.00  0.00     0.000 P 
HETATM   18  O18         0     -19.636  12.146  15.992  1.00  0.00     0.000 OA
BRANCH  17  19
HETATM   19  O16         0     -17.751  10.722  15.113  1.00  0.00     0.000 OA
HETATM   20  H72         0     -18.569  10.384  14.741  1.00  0.00     0.000 HD
ENDBRANCH  17  19
BRANCH  17  21
HETATM   21  O12         0     -17.374  13.256  16.006  1.00  0.00     0.000 OA
BRANCH  21  22
HETATM   22  P3          0     -15.829  12.950  15.539  1.00  0.00     0.000 P 
HETATM   23  O19         0     -15.761  12.531  14.151  1.00  0.00     0.000 OA
BRANCH  22  24
HETATM   24  O11         0     -15.032  14.362  15.779  1.00  0.00     0.000 OA
BRANCH  24  25
HETATM   25  C37         0     -15.864  15.496  15.539  1.00  0.00     0.000 C 
BRANCH  25  26
HETATM   26  C34         0     -15.859  16.416  16.758  1.00  0.00     0.000 C 
HETATM   27  O5          0     -15.934  15.689  18.015  1.00  0.00     0.000 OA
HETATM   28  C35         0     -15.447  16.681  18.945  1.00  0.00     0.000 C 
HETATM   29  C33         0     -14.292  17.391  18.213  1.00  0.00     0.000 C 
HETATM   30  C32         0     -14.572  17.197  16.770  1.00  0.00     0.000 C 
BRANCH  28  31
HETATM   31  N22         0     -14.959  16.146  20.240  1.00  0.00     0.000 N 
HETATM   32  C42         0     -13.972  15.182  20.120  1.00  0.00     0.000 A 
HETATM   33  C45         0     -13.415  14.596  21.229  1.00  0.00     0.000 A 
HETATM   34  C46         0     -13.835  14.988  22.479  1.00  0.00     0.000 A 
HETATM   35  C43         0     -14.793  15.968  22.659  1.00  0.00     0.000 A 
HETATM   36  C41         0     -15.367  16.562  21.519  1.00  0.00     0.000 A 
BRANCH  35  37
HETATM   37  C48         0     -15.162  16.281  24.105  1.00  0.00     0.000 C 
HETATM   38  N27         0     -14.424  15.807  25.207  1.00  0.00     0.000 N 
HETATM   39  H76         0     -13.454  15.531  25.174  1.00  0.00     0.000 HD
HETATM   40  O20         0     -16.191  16.881  24.319  1.00  0.00     0.000 OA
BRANCH  38  41
HETATM   41  O79         0     -14.972  15.547  26.571  1.00  0.00     0.000 OA
BRANCH  41  42
HETATM   42  C94         0     -14.643  16.079  27.823  1.00  0.00     0.000 A 
HETATM   43  C88         0     -15.040  15.395  28.990  1.00  0.00     0.000 A 
HETATM   44  C82         0     -15.787  14.043  28.948  1.00  0.00     0.000 C 
HETATM   45  C92         0     -14.731  15.924  30.251  1.00  0.00     0.000 A 
HETATM   46  C84         0     -15.405  13.244  27.699  1.00  0.00     0.000 C 
HETATM   47  C81         0     -15.383  13.224  30.218  1.00  0.00     0.000 C 
HETATM   48  C87         0     -16.151  11.912  27.676  1.00  0.00     0.000 C 
HETATM   49  C85         0     -15.767  11.055  28.883  1.00  0.00     0.000 C 
HETATM   50  C83         0     -15.960  11.773  30.231  1.00  0.00     0.000 C 
HETATM   51  C90         0     -17.442  11.749  30.634  1.00  0.00     0.000 C 
HETATM   52  C91         0     -15.180  10.960  31.275  1.00  0.00     0.000 C 
HETATM   53  C86         0     -15.895  13.987  31.428  1.00  0.00     0.000 C 
HETATM   54  C89         0     -15.108  15.270  31.574  1.00  0.00     0.000 C 
HETATM   55  C95         0     -14.021  17.092  30.365  1.00  0.00     0.000 A 
HETATM   56  C96         0     -13.588  17.754  29.242  1.00  0.00     0.000 A 
HETATM   57  C97         0     -13.889  17.259  27.981  1.00  0.00     0.000 A 
BRANCH  44  58
HETATM   58  C93         0     -17.285  14.301  28.928  1.00  0.00     0.000 C 
HETATM   59  O78         0     -17.874  14.516  29.963  1.00  0.00     0.000 OA
BRANCH  58  60
HETATM   60  O77         0     -17.965  14.306  27.750  1.00  0.00     0.000 OA
HETATM   61 0H12         0     -17.722  13.694  27.049  1.00  0.00     0.000 HD
ENDBRANCH  58  60
ENDBRANCH  44  58
BRANCH  56  62
HETATM   62  C98         0     -12.757  19.029  29.384  1.00  0.00     0.000 C 
HETATM   63  0C1         0     -13.622  20.201  29.840  1.00  0.00     0.000 C 
HETATM   64  C99         0     -11.619  18.845  30.404  1.00  0.00     0.000 C 
ENDBRANCH  56  62
BRANCH  57  65
HETATM   65  O80         0     -13.367  17.997  26.964  1.00  0.00     0.000 OA
HETATM   66  1C1         0     -13.967  19.043  26.245  1.00  0.00     0.000 C 
ENDBRANCH  57  65
ENDBRANCH  41  42
ENDBRANCH  38  41
ENDBRANCH  35  37
ENDBRANCH  28  31
BRANCH  29  67
HETATM   67  O10         0     -14.243  18.767  18.553  1.00  0.00     0.000 OA
HETATM   68  H64         0     -13.312  18.938  18.710  1.00  0.00     0.000 HD
ENDBRANCH  29  67
BRANCH  30  69
HETATM   69  O9          0     -14.694  18.436  16.090  1.00  0.00     0.000 OA
HETATM   70  H63         0     -14.088  19.026  16.542  1.00  0.00     0.000 HD
ENDBRANCH  30  69
ENDBRANCH  25  26
ENDBRANCH  24  25
ENDBRANCH  22  24
BRANCH  22  71
HETATM   71  O17         0     -15.169  11.820  16.526  1.00  0.00     0.000 OA
HETATM   72  H73         0     -15.460  10.982  16.169  1.00  0.00     0.000 HD
ENDBRANCH  22  71
ENDBRANCH  21  22
ENDBRANCH  17  21
ENDBRANCH  16  17
ENDBRANCH  15  16
ENDBRANCH  10  15
BRANCH  12  73
HETATM   73  N21         0     -17.464  12.674  23.009  1.00  0.00     0.000 N 
HETATM   74  C39         0     -17.295  13.192  24.246  1.00  0.00     0.000 A 
HETATM   75  N23         0     -18.312  12.830  25.053  1.00  0.00     0.000 NA
HETATM   76  C40         0     -19.114  12.069  24.294  1.00  0.00     0.000 A 
HETATM   77  C44         0     -20.297  11.441  24.619  1.00  0.00     0.000 A 
HETATM   78  C38         0     -18.594  11.968  23.039  1.00  0.00     0.000 A 
HETATM   79  N25         0     -20.929  10.704  23.628  1.00  0.00     0.000 NA
HETATM   80  C47         0     -20.393  10.599  22.350  1.00  0.00     0.000 A 
HETATM   81  N24         0     -19.204  11.242  22.038  1.00  0.00     0.000 NA
BRANCH  77  82
HETATM   82  N26         0     -20.855  11.543  25.912  1.00  0.00     0.000 N 
HETATM   83  H75         0     -21.388  10.821  26.376  1.00  0.00     0.000 HD
HETATM   84  H74         0     -20.747  12.334  26.532  1.00  0.00     0.000 HD
ENDBRANCH  77  82
ENDBRANCH  12  73
ENDBRANCH   7   8
ENDBRANCH   1   7
TORSDOF 27
ENDMDL
MODEL 7
REMARK VINA RESULT:      -7.1      5.019      6.385
REMARK  27 active torsions:
REMARK  status: ('A' for Active; 'I' for Inactive)
REMARK    1  A    between atoms: P1_1  and  O13_3 
REMARK    2  A    between atoms: P1_1  and  O14_5 
REMARK    3  A    between atoms: P1_1  and  O6_7 
REMARK    4  A    between atoms: P2_17  and  O16_19 
REMARK    5  A    between atoms: P2_17  and  O8_16 
REMARK    6  A    between atoms: P2_17  and  O12_21 
REMARK    7  A    between atoms: P3_22  and  O12_21 
REMARK    8  A    between atoms: P3_22  and  O11_24 
REMARK    9  A    between atoms: P3_22  and  O17_71 
REMARK   10  A    between atoms: O6_7  and  C28_8 
REMARK   11  A    between atoms: O7_13  and  C29_9 
REMARK   12  A    between atoms: O8_16  and  C36_15 
REMARK   13  A    between atoms: O9_69  and  C32_30 
REMARK   14  A    between atoms: O10_67  and  C33_29 
REMARK   15  A    between atoms: O11_24  and  C37_25 
REMARK   16  A    between atoms: N21_73  and  C30_12 
REMARK   17  A    between atoms: N22_31  and  C35_28 
REMARK   18  A    between atoms: N26_82  and  C44_77 
REMARK   19  A    between atoms: N27_38  and  O79_41 
REMARK       I    between atoms: N27_38  and  C48_37 
REMARK   20  A    between atoms: C31_10  and  C36_15 
REMARK   21  A    between atoms: C34_26  and  C37_25 
REMARK   22  A    between atoms: C43_35  and  C48_37 
REMARK   23  A    between atoms: O77_60  and  C93_58 
REMARK   24  A    between atoms: O79_41  and  C94_42 
REMARK   25  A    between atoms: O80_65  and  C97_57 
REMARK   26  A    between atoms: C82_44  and  C93_58 
REMARK   27  A    between atoms: C96_56  and  C98_62 
ROOT
HETATM    1  P1          0     -14.848  10.039  28.223  1.00  0.00     0.000 P 
HETATM    2  O15         0     -13.790  10.427  29.137  1.00  0.00     0.000 OA
ENDROOT
BRANCH   1   3
HETATM    3  O13         0     -15.374   8.536  28.615  1.00  0.00     0.000 OA
HETATM    4  H69         0     -14.589   8.080  28.921  1.00  0.00     0.000 HD
ENDBRANCH   1   3
BRANCH   1   5
HETATM    5  O14         0     -14.293  10.040  26.681  1.00  0.00     0.000 OA
HETATM    6  H70         0     -15.090   9.994  26.142  1.00  0.00     0.000 HD
ENDBRANCH   1   5
BRANCH   1   7
HETATM    7  O6          0     -16.103  11.093  28.356  1.00  0.00     0.000 OA
BRANCH   7   8
HETATM    8  C28         0     -16.037  12.218  27.476  1.00  0.00     0.000 C 
HETATM    9  C29         0     -15.397  13.390  28.144  1.00  0.00     0.000 C 
HETATM   10  C31         0     -16.226  14.584  27.727  1.00  0.00     0.000 C 
HETATM   11  O4          0     -17.371  14.128  26.991  1.00  0.00     0.000 OA
HETATM   12  C30         0     -17.431  12.701  27.083  1.00  0.00     0.000 C 
BRANCH   9  13
HETATM   13  O7          0     -15.408  13.243  29.557  1.00  0.00     0.000 OA
HETATM   14  H61         0     -14.769  13.886  29.876  1.00  0.00     0.000 HD
ENDBRANCH   9  13
BRANCH  10  15
HETATM   15  C36         0     -15.387  15.515  26.823  1.00  0.00     0.000 C 
BRANCH  15  16
HETATM   16  O8          0     -14.250  14.903  26.196  1.00  0.00     0.000 OA
BRANCH  16  17
HETATM   17  P2          0     -14.375  14.645  24.579  1.00  0.00     0.000 P 
HETATM   18  O18         0     -14.518  13.223  24.326  1.00  0.00     0.000 OA
BRANCH  17  19
HETATM   19  O16         0     -13.044  15.197  23.792  1.00  0.00     0.000 OA
HETATM   20  H72         0     -12.995  14.664  22.995  1.00  0.00     0.000 HD
ENDBRANCH  17  19
BRANCH  17  21
HETATM   21  O12         0     -15.733  15.416  24.075  1.00  0.00     0.000 OA
BRANCH  21  22
HETATM   22  P3          0     -15.606  15.883  22.505  1.00  0.00     0.000 P 
HETATM   23  O19         0     -14.475  16.768  22.297  1.00  0.00     0.000 OA
BRANCH  22  24
HETATM   24  O11         0     -15.437  14.485  21.665  1.00  0.00     0.000 OA
BRANCH  24  25
HETATM   25  C37         0     -16.651  13.737  21.617  1.00  0.00     0.000 C 
BRANCH  25  26
HETATM   26  C34         0     -16.605  12.737  20.463  1.00  0.00     0.000 C 
HETATM   27  O5          0     -16.116  13.324  19.227  1.00  0.00     0.000 OA
HETATM   28  C35         0     -15.728  12.145  18.489  1.00  0.00     0.000 C 
HETATM   29  C33         0     -15.084  11.208  19.529  1.00  0.00     0.000 C 
HETATM   30  C32         0     -15.664  11.620  20.829  1.00  0.00     0.000 C 
BRANCH  28  31
HETATM   31  N22         0     -14.774  12.383  17.376  1.00  0.00     0.000 N 
HETATM   32  C42         0     -13.442  12.259  17.736  1.00  0.00     0.000 A 
HETATM   33  C45         0     -12.441  12.443  16.816  1.00  0.00     0.000 A 
HETATM   34  C46         0     -12.770  12.737  15.513  1.00  0.00     0.000 A 
HETATM   35  C43         0     -14.083  12.839  15.091  1.00  0.00     0.000 A 
HETATM   36  C41         0     -15.107  12.657  16.038  1.00  0.00     0.000 A 
BRANCH  35  37
HETATM   37  C48         0     -14.284  13.184  13.620  1.00  0.00     0.000 C 
HETATM   38  N27         0     -13.791  14.366  13.032  1.00  0.00     0.000 N 
HETATM   39  H76         0     -13.014  14.904  13.387  1.00  0.00     0.000 HD
HETATM   40  O20         0     -14.982  12.458  12.949  1.00  0.00     0.000 OA
BRANCH  38  41
HETATM   41  O79         0     -14.386  15.064  11.855  1.00  0.00     0.000 OA
BRANCH  41  42
HETATM   42  C94         0     -15.624  15.689  11.671  1.00  0.00     0.000 A 
HETATM   43  C88         0     -16.187  15.740  10.380  1.00  0.00     0.000 A 
HETATM   44  C82         0     -15.514  15.086   9.152  1.00  0.00     0.000 C 
HETATM   45  C92         0     -17.420  16.377  10.178  1.00  0.00     0.000 A 
HETATM   46  C84         0     -14.687  13.865   9.566  1.00  0.00     0.000 C 
HETATM   47  C81         0     -16.639  14.627   8.167  1.00  0.00     0.000 C 
HETATM   48  C87         0     -14.032  13.233   8.341  1.00  0.00     0.000 C 
HETATM   49  C85         0     -15.091  12.736   7.356  1.00  0.00     0.000 C 
HETATM   50  C83         0     -16.102  13.820   6.943  1.00  0.00     0.000 C 
HETATM   51  C90         0     -15.484  14.738   5.878  1.00  0.00     0.000 C 
HETATM   52  C91         0     -17.288  13.090   6.297  1.00  0.00     0.000 C 
HETATM   53  C86         0     -17.350  15.878   7.680  1.00  0.00     0.000 C 
HETATM   54  C89         0     -18.119  16.490   8.830  1.00  0.00     0.000 C 
HETATM   55  C95         0     -18.102  16.931  11.231  1.00  0.00     0.000 A 
HETATM   56  C96         0     -17.592  16.856  12.505  1.00  0.00     0.000 A 
HETATM   57  C97         0     -16.368  16.242  12.732  1.00  0.00     0.000 A 
BRANCH  44  58
HETATM   58  C93         0     -14.596  16.100   8.487  1.00  0.00     0.000 C 
HETATM   59  O78         0     -13.431  15.829   8.304  1.00  0.00     0.000 OA
BRANCH  58  60
HETATM   60  O77         0     -15.082  17.303   8.083  1.00  0.00     0.000 OA
HETATM   61 0H12         0     -14.633  17.798   7.391  1.00  0.00     0.000 HD
ENDBRANCH  58  60
ENDBRANCH  44  58
BRANCH  56  62
HETATM   62  C98         0     -18.385  17.437  13.676  1.00  0.00     0.000 C 
HETATM   63  0C1         0     -18.315  18.961  13.686  1.00  0.00     0.000 C 
HETATM   64  C99         0     -19.866  17.022  13.610  1.00  0.00     0.000 C 
ENDBRANCH  56  62
BRANCH  57  65
HETATM   65  O80         0     -16.006  16.211  14.043  1.00  0.00     0.000 OA
HETATM   66  1C1         0     -15.092  17.036  14.717  1.00  0.00     0.000 C 
ENDBRANCH  57  65
ENDBRANCH  41  42
ENDBRANCH  38  41
ENDBRANCH  35  37
ENDBRANCH  28  31
BRANCH  29  67
HETATM   67  O10         0     -15.370   9.851  19.238  1.00  0.00     0.000 OA
HETATM   68  H64         0     -15.907   9.888  18.443  1.00  0.00     0.000 HD
ENDBRANCH  29  67
BRANCH  30  69
HETATM   69  O9          0     -16.336  10.545  21.466  1.00  0.00     0.000 OA
HETATM   70  H63         0     -16.179   9.787  20.900  1.00  0.00     0.000 HD
ENDBRANCH  30  69
ENDBRANCH  25  26
ENDBRANCH  24  25
ENDBRANCH  22  24
BRANCH  22  71
HETATM   71  O17         0     -17.003  16.595  22.028  1.00  0.00     0.000 OA
HETATM   72  H73         0     -17.529  15.885  21.663  1.00  0.00     0.000 HD
ENDBRANCH  22  71
ENDBRANCH  21  22
ENDBRANCH  17  21
ENDBRANCH  16  17
ENDBRANCH  15  16
ENDBRANCH  10  15
BRANCH  12  73
HETATM   73  N21         0     -17.866  12.121  25.795  1.00  0.00     0.000 N 
HETATM   74  C39         0     -17.107  11.709  24.755  1.00  0.00     0.000 A 
HETATM   75  N23         0     -17.883  11.226  23.764  1.00  0.00     0.000 NA
HETATM   76  C40         0     -19.143  11.354  24.207  1.00  0.00     0.000 A 
HETATM   77  C44         0     -20.330  11.014  23.593  1.00  0.00     0.000 A 
HETATM   78  C38         0     -19.136  11.906  25.452  1.00  0.00     0.000 A 
HETATM   79  N25         0     -21.506  11.260  24.285  1.00  0.00     0.000 NA
HETATM   80  C47         0     -21.496  11.828  25.553  1.00  0.00     0.000 A 
HETATM   81  N24         0     -20.293  12.159  26.159  1.00  0.00     0.000 NA
BRANCH  77  82
HETATM   82  N26         0     -20.354  10.432  22.307  1.00  0.00     0.000 N 
HETATM   83  H75         0     -20.920  10.750  21.533  1.00  0.00     0.000 HD
HETATM   84  H74         0     -19.777   9.658  22.006  1.00  0.00     0.000 HD
ENDBRANCH  77  82
ENDBRANCH  12  73
ENDBRANCH   7   8
ENDBRANCH   1   7
TORSDOF 27
ENDMDL
MODEL 8
REMARK VINA RESULT:      -7.1      7.426     10.249
REMARK  27 active torsions:
REMARK  status: ('A' for Active; 'I' for Inactive)
REMARK    1  A    between atoms: P1_1  and  O13_3 
REMARK    2  A    between atoms: P1_1  and  O14_5 
REMARK    3  A    between atoms: P1_1  and  O6_7 
REMARK    4  A    between atoms: P2_17  and  O16_19 
REMARK    5  A    between atoms: P2_17  and  O8_16 
REMARK    6  A    between atoms: P2_17  and  O12_21 
REMARK    7  A    between atoms: P3_22  and  O12_21 
REMARK    8  A    between atoms: P3_22  and  O11_24 
REMARK    9  A    between atoms: P3_22  and  O17_71 
REMARK   10  A    between atoms: O6_7  and  C28_8 
REMARK   11  A    between atoms: O7_13  and  C29_9 
REMARK   12  A    between atoms: O8_16  and  C36_15 
REMARK   13  A    between atoms: O9_69  and  C32_30 
REMARK   14  A    between atoms: O10_67  and  C33_29 
REMARK   15  A    between atoms: O11_24  and  C37_25 
REMARK   16  A    between atoms: N21_73  and  C30_12 
REMARK   17  A    between atoms: N22_31  and  C35_28 
REMARK   18  A    between atoms: N26_82  and  C44_77 
REMARK   19  A    between atoms: N27_38  and  O79_41 
REMARK       I    between atoms: N27_38  and  C48_37 
REMARK   20  A    between atoms: C31_10  and  C36_15 
REMARK   21  A    between atoms: C34_26  and  C37_25 
REMARK   22  A    between atoms: C43_35  and  C48_37 
REMARK   23  A    between atoms: O77_60  and  C93_58 
REMARK   24  A    between atoms: O79_41  and  C94_42 
REMARK   25  A    between atoms: O80_65  and  C97_57 
REMARK   26  A    between atoms: C82_44  and  C93_58 
REMARK   27  A    between atoms: C96_56  and  C98_62 
ROOT
HETATM    1  P1          0     -13.290  10.260  19.927  1.00  0.00     0.000 P 
HETATM    2  O15         0     -12.326   9.517  20.716  1.00  0.00     0.000 OA
ENDROOT
BRANCH   1   3
HETATM    3  O13         0     -13.107   9.871  18.344  1.00  0.00     0.000 OA
HETATM    4  H69         0     -12.804   8.962  18.355  1.00  0.00     0.000 HD
ENDBRANCH   1   3
BRANCH   1   5
HETATM    5  O14         0     -13.063  11.871  20.125  1.00  0.00     0.000 OA
HETATM    6  H70         0     -12.839  12.189  19.244  1.00  0.00     0.000 HD
ENDBRANCH   1   5
BRANCH   1   7
HETATM    7  O6          0     -14.813   9.858  20.400  1.00  0.00     0.000 OA
BRANCH   7   8
HETATM    8  C28         0     -15.635  10.965  20.777  1.00  0.00     0.000 C 
HETATM    9  C29         0     -16.064  10.858  22.203  1.00  0.00     0.000 C 
HETATM   10  C31         0     -17.520  11.270  22.211  1.00  0.00     0.000 C 
HETATM   11  O4          0     -17.963  11.454  20.858  1.00  0.00     0.000 OA
HETATM   12  C30         0     -16.936  10.991  19.976  1.00  0.00     0.000 C 
BRANCH   9  13
HETATM   13  O7          0     -15.918   9.529  22.685  1.00  0.00     0.000 OA
HETATM   14  H61         0     -16.002   8.974  21.905  1.00  0.00     0.000 HD
ENDBRANCH   9  13
BRANCH  10  15
HETATM   15  C36         0     -17.683  12.601  22.978  1.00  0.00     0.000 C 
BRANCH  15  16
HETATM   16  O8          0     -16.655  13.576  22.748  1.00  0.00     0.000 OA
BRANCH  16  17
HETATM   17  P2          0     -16.097  14.357  24.080  1.00  0.00     0.000 P 
HETATM   18  O18         0     -15.358  13.426  24.913  1.00  0.00     0.000 OA
BRANCH  17  19
HETATM   19  O16         0     -17.335  14.989  24.952  1.00  0.00     0.000 OA
HETATM   20  H72         0     -17.193  15.939  24.922  1.00  0.00     0.000 HD
ENDBRANCH  17  19
BRANCH  17  21
HETATM   21  O12         0     -15.074  15.528  23.554  1.00  0.00     0.000 OA
BRANCH  21  22
HETATM   22  P3          0     -15.881  16.921  23.227  1.00  0.00     0.000 P 
HETATM   23  O19         0     -16.314  17.589  24.440  1.00  0.00     0.000 OA
BRANCH  22  24
HETATM   24  O11         0     -14.812  17.838  22.387  1.00  0.00     0.000 OA
BRANCH  24  25
HETATM   25  C37         0     -15.392  19.060  21.934  1.00  0.00     0.000 C 
BRANCH  25  26
HETATM   26  C34         0     -15.175  19.217  20.430  1.00  0.00     0.000 C 
HETATM   27  O5          0     -14.206  18.273  19.898  1.00  0.00     0.000 OA
HETATM   28  C35         0     -14.532  18.297  18.492  1.00  0.00     0.000 C 
HETATM   29  C33         0     -16.070  18.365  18.431  1.00  0.00     0.000 C 
HETATM   30  C32         0     -16.480  18.964  19.724  1.00  0.00     0.000 C 
BRANCH  28  31
HETATM   31  N22         0     -14.055  17.127  17.713  1.00  0.00     0.000 N 
HETATM   32  C42         0     -13.130  16.342  18.380  1.00  0.00     0.000 A 
HETATM   33  C45         0     -12.600  15.220  17.794  1.00  0.00     0.000 A 
HETATM   34  C46         0     -13.011  14.863  16.531  1.00  0.00     0.000 A 
HETATM   35  C43         0     -13.956  15.591  15.832  1.00  0.00     0.000 A 
HETATM   36  C41         0     -14.492  16.745  16.433  1.00  0.00     0.000 A 
BRANCH  35  37
HETATM   37  C48         0     -14.295  15.076  14.438  1.00  0.00     0.000 C 
HETATM   38  N27         0     -14.887  15.880  13.443  1.00  0.00     0.000 N 
HETATM   39  H76         0     -14.835  16.887  13.412  1.00  0.00     0.000 HD
HETATM   40  O20         0     -14.139  13.898  14.205  1.00  0.00     0.000 OA
BRANCH  38  41
HETATM   41  O79         0     -15.758  15.389  12.335  1.00  0.00     0.000 OA
BRANCH  41  42
HETATM   42  C94         0     -16.779  16.011  11.607  1.00  0.00     0.000 A 
HETATM   43  C88         0     -16.722  16.011  10.199  1.00  0.00     0.000 A 
HETATM   44  C82         0     -15.595  15.305   9.413  1.00  0.00     0.000 C 
HETATM   45  C92         0     -17.729  16.644   9.458  1.00  0.00     0.000 A 
HETATM   46  C84         0     -15.057  14.099  10.188  1.00  0.00     0.000 C 
HETATM   47  C81         0     -16.188  14.810   8.052  1.00  0.00     0.000 C 
HETATM   48  C87         0     -13.946  13.415   9.394  1.00  0.00     0.000 C 
HETATM   49  C85         0     -14.481  12.882   8.065  1.00  0.00     0.000 C 
HETATM   50  C83         0     -15.187  13.952   7.214  1.00  0.00     0.000 C 
HETATM   51  C90         0     -14.148  14.824   6.494  1.00  0.00     0.000 C 
HETATM   52  C91         0     -15.989  13.200   6.141  1.00  0.00     0.000 C 
HETATM   53  C86         0     -16.588  16.043   7.260  1.00  0.00     0.000 C 
HETATM   54  C89         0     -17.769  16.704   7.937  1.00  0.00     0.000 C 
HETATM   55  C95         0     -18.790  17.243  10.087  1.00  0.00     0.000 A 
HETATM   56  C96         0     -18.889  17.218  11.458  1.00  0.00     0.000 A 
HETATM   57  C97         0     -17.899  16.609  12.217  1.00  0.00     0.000 A 
BRANCH  44  58
HETATM   58  C93         0     -14.458  16.287   9.179  1.00  0.00     0.000 C 
HETATM   59  O78         0     -14.682  17.356   8.657  1.00  0.00     0.000 OA
BRANCH  58  60
HETATM   60  O77         0     -13.192  15.977   9.568  1.00  0.00     0.000 OA
HETATM   61 0H12         0     -12.947  15.061   9.730  1.00  0.00     0.000 HD
ENDBRANCH  58  60
ENDBRANCH  44  58
BRANCH  56  62
HETATM   62  C98         0     -20.100  17.849  12.144  1.00  0.00     0.000 C 
HETATM   63  0C1         0     -20.374  19.247  11.601  1.00  0.00     0.000 C 
HETATM   64  C99         0     -21.365  16.996  11.941  1.00  0.00     0.000 C 
ENDBRANCH  56  62
BRANCH  57  65
HETATM   65  O80         0     -18.146  16.630  13.555  1.00  0.00     0.000 OA
HETATM   66  1C1         0     -17.682  17.544  14.514  1.00  0.00     0.000 C 
ENDBRANCH  57  65
ENDBRANCH  41  42
ENDBRANCH  38  41
ENDBRANCH  35  37
ENDBRANCH  28  31
BRANCH  29  67
HETATM   67  O10         0     -16.503  19.151  17.334  1.00  0.00     0.000 OA
HETATM   68  H64         0     -16.380  18.581  16.572  1.00  0.00     0.000 HD
ENDBRANCH  29  67
BRANCH  30  69
HETATM   69  O9          0     -17.225  20.157  19.535  1.00  0.00     0.000 OA
HETATM   70  H63         0     -17.564  20.096  18.640  1.00  0.00     0.000 HD
ENDBRANCH  30  69
ENDBRANCH  25  26
ENDBRANCH  24  25
ENDBRANCH  22  24
BRANCH  22  71
HETATM   71  O17         0     -17.155  16.601  22.247  1.00  0.00     0.000 OA
HETATM   72  H73         0     -16.806  16.671  21.359  1.00  0.00     0.000 HD
ENDBRANCH  22  71
ENDBRANCH  21  22
ENDBRANCH  17  21
ENDBRANCH  16  17
ENDBRANCH  15  16
ENDBRANCH  10  15
BRANCH  12  73
HETATM   73  N21         0     -16.831  11.879  18.798  1.00  0.00     0.000 N 
HETATM   74  C39         0     -16.132  13.028  18.666  1.00  0.00     0.000 A 
HETATM   75  N23         0     -16.286  13.536  17.426  1.00  0.00     0.000 NA
HETATM   76  C40         0     -17.102  12.680  16.792  1.00  0.00     0.000 A 
HETATM   77  C44         0     -17.584  12.718  15.501  1.00  0.00     0.000 A 
HETATM   78  C38         0     -17.441  11.664  17.633  1.00  0.00     0.000 A 
HETATM   79  N25         0     -18.426  11.692  15.097  1.00  0.00     0.000 NA
HETATM   80  C47         0     -18.774  10.660  15.959  1.00  0.00     0.000 A 
HETATM   81  N24         0     -18.276  10.633  17.254  1.00  0.00     0.000 NA
BRANCH  77  82
HETATM   82  N26         0     -17.234  13.759  14.614  1.00  0.00     0.000 N 
HETATM   83  H75         0     -17.138  14.733  14.865  1.00  0.00     0.000 HD
HETATM   84  H74         0     -17.000  13.639  13.638  1.00  0.00     0.000 HD
ENDBRANCH  77  82
ENDBRANCH  12  73
ENDBRANCH   7   8
ENDBRANCH   1   7
TORSDOF 27
ENDMDL
MODEL 9
REMARK VINA RESULT:      -6.9      3.500      4.798
REMARK  27 active torsions:
REMARK  status: ('A' for Active; 'I' for Inactive)
REMARK    1  A    between atoms: P1_1  and  O13_3 
REMARK    2  A    between atoms: P1_1  and  O14_5 
REMARK    3  A    between atoms: P1_1  and  O6_7 
REMARK    4  A    between atoms: P2_17  and  O16_19 
REMARK    5  A    between atoms: P2_17  and  O8_16 
REMARK    6  A    between atoms: P2_17  and  O12_21 
REMARK    7  A    between atoms: P3_22  and  O12_21 
REMARK    8  A    between atoms: P3_22  and  O11_24 
REMARK    9  A    between atoms: P3_22  and  O17_71 
REMARK   10  A    between atoms: O6_7  and  C28_8 
REMARK   11  A    between atoms: O7_13  and  C29_9 
REMARK   12  A    between atoms: O8_16  and  C36_15 
REMARK   13  A    between atoms: O9_69  and  C32_30 
REMARK   14  A    between atoms: O10_67  and  C33_29 
REMARK   15  A    between atoms: O11_24  and  C37_25 
REMARK   16  A    between atoms: N21_73  and  C30_12 
REMARK   17  A    between atoms: N22_31  and  C35_28 
REMARK   18  A    between atoms: N26_82  and  C44_77 
REMARK   19  A    between atoms: N27_38  and  O79_41 
REMARK       I    between atoms: N27_38  and  C48_37 
REMARK   20  A    between atoms: C31_10  and  C36_15 
REMARK   21  A    between atoms: C34_26  and  C37_25 
REMARK   22  A    between atoms: C43_35  and  C48_37 
REMARK   23  A    between atoms: O77_60  and  C93_58 
REMARK   24  A    between atoms: O79_41  and  C94_42 
REMARK   25  A    between atoms: O80_65  and  C97_57 
REMARK   26  A    between atoms: C82_44  and  C93_58 
REMARK   27  A    between atoms: C96_56  and  C98_62 
ROOT
HETATM    1  P1          0     -14.096  16.017  31.403  1.00  0.00     0.000 P 
HETATM    2  O15         0     -14.009  15.811  32.837  1.00  0.00     0.000 OA
ENDROOT
BRANCH   1   3
HETATM    3  O13         0     -13.138  17.280  30.981  1.00  0.00     0.000 OA
HETATM    4  H69         0     -13.042  17.199  30.031  1.00  0.00     0.000 HD
ENDBRANCH   1   3
BRANCH   1   5
HETATM    5  O14         0     -15.644  16.334  30.969  1.00  0.00     0.000 OA
HETATM    6  H70         0     -16.123  15.531  31.198  1.00  0.00     0.000 HD
ENDBRANCH   1   5
BRANCH   1   7
HETATM    7  O6          0     -13.572  14.668  30.622  1.00  0.00     0.000 OA
BRANCH   7   8
HETATM    8  C28         0     -14.573  13.989  29.861  1.00  0.00     0.000 C 
HETATM    9  C29         0     -14.660  14.533  28.473  1.00  0.00     0.000 C 
HETATM   10  C31         0     -16.139  14.616  28.172  1.00  0.00     0.000 C 
HETATM   11  O4          0     -16.880  14.293  29.358  1.00  0.00     0.000 OA
HETATM   12  C30         0     -15.964  14.203  30.454  1.00  0.00     0.000 C 
BRANCH   9  13
HETATM   13  O7          0     -14.058  15.818  28.388  1.00  0.00     0.000 OA
HETATM   14  H61         0     -13.170  15.697  28.734  1.00  0.00     0.000 HD
ENDBRANCH   9  13
BRANCH  10  15
HETATM   15  C36         0     -16.505  13.606  27.061  1.00  0.00     0.000 C 
BRANCH  15  16
HETATM   16  O8          0     -17.523  12.654  27.404  1.00  0.00     0.000 OA
BRANCH  16  17
HETATM   17  P2          0     -17.566  11.290  26.491  1.00  0.00     0.000 P 
HETATM   18  O18         0     -17.077  10.169  27.273  1.00  0.00     0.000 OA
BRANCH  17  19
HETATM   19  O16         0     -16.636  11.452  25.149  1.00  0.00     0.000 OA
HETATM   20  H72         0     -16.050  10.691  25.166  1.00  0.00     0.000 HD
ENDBRANCH  17  19
BRANCH  17  21
HETATM   21  O12         0     -19.139  11.024  26.103  1.00  0.00     0.000 OA
BRANCH  21  22
HETATM   22  P3          0     -19.531  11.745  24.680  1.00  0.00     0.000 P 
HETATM   23  O19         0     -18.930  13.060  24.560  1.00  0.00     0.000 OA
BRANCH  22  24
HETATM   24  O11         0     -18.975  10.722  23.525  1.00  0.00     0.000 OA
BRANCH  24  25
HETATM   25  C37         0     -19.345  11.143  22.213  1.00  0.00     0.000 C 
BRANCH  25  26
HETATM   26  C34         0     -18.101  11.288  21.339  1.00  0.00     0.000 C 
HETATM   27  O5          0     -18.353  10.974  19.943  1.00  0.00     0.000 OA
HETATM   28  C35         0     -17.233  11.621  19.301  1.00  0.00     0.000 C 
HETATM   29  C33         0     -17.044  12.950  20.057  1.00  0.00     0.000 C 
HETATM   30  C32         0     -17.634  12.718  21.397  1.00  0.00     0.000 C 
BRANCH  28  31
HETATM   31  N22         0     -17.406  11.894  17.852  1.00  0.00     0.000 N 
HETATM   32  C42         0     -18.391  11.131  17.247  1.00  0.00     0.000 A 
HETATM   33  C45         0     -18.674  11.273  15.912  1.00  0.00     0.000 A 
HETATM   34  C46         0     -17.980  12.200  15.171  1.00  0.00     0.000 A 
HETATM   35  C43         0     -17.010  13.011  15.731  1.00  0.00     0.000 A 
HETATM   36  C41         0     -16.716  12.859  17.099  1.00  0.00     0.000 A 
BRANCH  35  37
HETATM   37  C48         0     -16.319  13.979  14.776  1.00  0.00     0.000 C 
HETATM   38  N27         0     -16.952  15.119  14.243  1.00  0.00     0.000 N 
HETATM   39  H76         0     -17.741  15.588  14.664  1.00  0.00     0.000 HD
HETATM   40  O20         0     -15.208  13.703  14.382  1.00  0.00     0.000 OA
BRANCH  38  41
HETATM   41  O79         0     -16.628  15.761  12.935  1.00  0.00     0.000 OA
BRANCH  41  42
HETATM   42  C94         0     -17.438  16.365  11.968  1.00  0.00     0.000 A 
HETATM   43  C88         0     -17.075  16.277  10.609  1.00  0.00     0.000 A 
HETATM   44  C82         0     -15.835  15.490  10.130  1.00  0.00     0.000 C 
HETATM   45  C92         0     -17.869  16.891   9.631  1.00  0.00     0.000 A 
HETATM   46  C84         0     -15.530  14.319  11.069  1.00  0.00     0.000 C 
HETATM   47  C81         0     -16.137  14.928   8.701  1.00  0.00     0.000 C 
HETATM   48  C87         0     -14.303  13.555  10.578  1.00  0.00     0.000 C 
HETATM   49  C85         0     -14.557  12.956   9.194  1.00  0.00     0.000 C 
HETATM   50  C83         0     -15.015  13.991   8.151  1.00  0.00     0.000 C 
HETATM   51  C90         0     -13.808  14.785   7.631  1.00  0.00     0.000 C 
HETATM   52  C91         0     -15.594  13.198   6.971  1.00  0.00     0.000 C 
HETATM   53  C86         0     -16.303  16.121   7.774  1.00  0.00     0.000 C 
HETATM   54  C89         0     -17.573  16.858   8.138  1.00  0.00     0.000 C 
HETATM   55  C95         0     -19.016  17.559   9.978  1.00  0.00     0.000 A 
HETATM   56  C96         0     -19.411  17.622  11.292  1.00  0.00     0.000 A 
HETATM   57  C97         0     -18.638  17.033  12.283  1.00  0.00     0.000 A 
BRANCH  44  58
HETATM   58  C93         0     -14.633  16.422  10.099  1.00  0.00     0.000 C 
HETATM   59  O78         0     -13.539  16.004  10.403  1.00  0.00     0.000 OA
BRANCH  58  60
HETATM   60  O77         0     -14.780  17.718   9.718  1.00  0.00     0.000 OA
HETATM   61 0H12         0     -14.025  18.213   9.386  1.00  0.00     0.000 HD
ENDBRANCH  58  60
ENDBRANCH  44  58
BRANCH  56  62
HETATM   62  C98         0     -20.715  18.330  11.660  1.00  0.00     0.000 C 
HETATM   63  0C1         0     -20.718  19.772  11.162  1.00  0.00     0.000 C 
HETATM   64  C99         0     -21.933  17.609  11.055  1.00  0.00     0.000 C 
ENDBRANCH  56  62
BRANCH  57  65
HETATM   65  O80         0     -19.169  17.145  13.531  1.00  0.00     0.000 OA
HETATM   66  1C1         0     -18.856  18.076  14.533  1.00  0.00     0.000 C 
ENDBRANCH  57  65
ENDBRANCH  41  42
ENDBRANCH  38  41
ENDBRANCH  35  37
ENDBRANCH  28  31
BRANCH  29  67
HETATM   67  O10         0     -15.672  13.296  20.145  1.00  0.00     0.000 OA
HETATM   68  H64         0     -15.374  13.314  19.233  1.00  0.00     0.000 HD
ENDBRANCH  29  67
BRANCH  30  69
HETATM   69  O9          0     -16.683  12.927  22.430  1.00  0.00     0.000 OA
HETATM   70  H63         0     -16.786  13.848  22.676  1.00  0.00     0.000 HD
ENDBRANCH  30  69
ENDBRANCH  25  26
ENDBRANCH  24  25
ENDBRANCH  22  24
BRANCH  22  71
HETATM   71  O17         0     -21.162  11.831  24.539  1.00  0.00     0.000 OA
HETATM   72  H73         0     -21.486  11.853  25.439  1.00  0.00     0.000 HD
ENDBRANCH  22  71
ENDBRANCH  21  22
ENDBRANCH  17  21
ENDBRANCH  16  17
ENDBRANCH  15  16
ENDBRANCH  10  15
BRANCH  12  73
HETATM   73  N21         0     -16.348  13.094  31.355  1.00  0.00     0.000 N 
HETATM   74  C39         0     -15.651  11.978  31.665  1.00  0.00     0.000 A 
HETATM   75  N23         0     -16.343  11.215  32.536  1.00  0.00     0.000 NA
HETATM   76  C40         0     -17.489  11.878  32.755  1.00  0.00     0.000 A 
HETATM   77  C44         0     -18.555  11.546  33.563  1.00  0.00     0.000 A 
HETATM   78  C38         0     -17.496  13.030  32.028  1.00  0.00     0.000 A 
HETATM   79  N25         0     -19.630  12.422  33.602  1.00  0.00     0.000 NA
HETATM   80  C47         0     -19.637  13.594  32.856  1.00  0.00     0.000 A 
HETATM   81  N24         0     -18.553  13.916  32.051  1.00  0.00     0.000 NA
BRANCH  77  82
HETATM   82  N26         0     -18.559  10.361  34.330  1.00  0.00     0.000 N 
HETATM   83  H75         0     -19.255  10.115  35.020  1.00  0.00     0.000 HD
HETATM   84  H74         0     -17.889   9.609  34.243  1.00  0.00     0.000 HD
ENDBRANCH  77  82
ENDBRANCH  12  73
ENDBRANCH   7   8
ENDBRANCH   1   7
TORSDOF 27
ENDMDL
